/*--------------------------------*- C++ -*----------------------------------*\
|       o        |                                                            |
|    o     o     |  HELYX (R) : Open-source CFD for Enterprise                |
|   o   O   o    |  Version : 4.4.0                                           |
|    o     o     |  ENGYS Ltd. <http://engys.com/>                            |
|       o        |                                                            |
\*---------------------------------------------------------------------------*/
FoamFile
{
    version     2.0;
    format      ascii;
    class       dictionary;
    object      controlDict;
}
// * * * * * * * * * * * * * * * * * * * * * * * * * * * * * * * * * * * * * //

application     helyxSolve;

startFrom       latestTime;

startTime       0;

stopAt          endTime;

endTime         15;

deltaT          0.025;

writeControl    adjustableRunTime;

writeInterval   2.5;

purgeWrite      0;

writeFormat     ascii;

writePrecision  10;

writeCompression uncompressed;

timeFormat      general;

timePrecision   6;

graphFormat     raw;

runTimeModifiable yes;

libs            1 ( "" );

adjustTimeStep  no;

maxCo           1;

maxDeltaT       1;

functions
{
    VR
    {
        functionObjectLibs ( "libreport.so" );
        logToFile       yes;
        fields          ( U p k omega );
        executeControl  onEnd;
        type            volumeReport;
        writeControl    onEnd;
        outputFileFormat tsv;
    }
    sets
    {
        type            sets;
        functionObjectLibs ( "libsampling.so" );
        writeControl    timeStep;
        writeInterval   1;
        timeStart       10;
        timeEnd         15;
        interpolationScheme cell;
        verbose         true;
        enabled         true;
        region          region0;
        fields          ( U k omega );
        setFormat       f4st;
        sets            
        (
            patchOutlet
            {
                type            patchSeed;
                patches         ( outlet );
                axis            xyz;
                maxPoints       10000;
            }

        )
;
    }
}


// ************************************************************************* //
