/*--------------------------------*- C++ -*----------------------------------*\
|       o        |                                                            |
|    o     o     |  HELYX (R) : Open-source CFD for Enterprise                |
|   o   O   o    |  Version : 4.4.0                                           |
|    o     o     |  ENGYS Ltd. <http://engys.com/>                            |
|       o        |                                                            |
\*---------------------------------------------------------------------------*/
FoamFile
{
    version     2.0;
    format      ascii;
    class       dictionary;
    object      topoSetDict;
}
// * * * * * * * * * * * * * * * * * * * * * * * * * * * * * * * * * * * * * //

actions
(
    {
        name    c0;
        type    cellSet;
        action  clear;
    }
    {
        name    c0;
        type    cellSet;
        action  invert;
    }
    {
        name    c0;
        type    cellSet;
        action  delete;
        source  boxToCell;
        sourceInfo
        {
            box (-0.801 -1.0 4.701) (-0.251 0.101 5.601);
        }
    }
    {
        name    c0;
        type    cellSet;
        action  delete;
        source  boxToCell;
        sourceInfo
        {
            box (-0.201 -1.0 4.401) (0.55 -0.451 4.801);
        }
    }
    {
        name    c0;
        type    cellSet;
        action  delete;
        source  boxToCell;
        sourceInfo
        {
            box (0.351 -1.0 5.401) (0.801 -0.151 6.301);
        }
    }
    {
        name    c0;
        type    cellSet;
        action  delete;
        source  boxToCell;
        sourceInfo
        {
            box (-0.401 -1.0 6.901) (0.351 -0.101 7.601);
        }
    }
);


// ************************************************************************* //
