/*--------------------------------*- C++ -*----------------------------------*\
|       o        |                                                            |
|    o     o     |  HELYX (R) : Open-source CFD for Enterprise                |
|   o   O   o    |  Version : 4.4.0                                           |
|    o     o     |  ENGYS Ltd. <http://engys.com/>                            |
|       o        |                                                            |
\*---------------------------------------------------------------------------*/
FoamFile
{
    version     2.0;
    format      ascii;
    class       volScalarField;
    location    "1";
    object      k;
}
// * * * * * * * * * * * * * * * * * * * * * * * * * * * * * * * * * * * * * //

dimensions      [0 2 -2 0 0 0 0];

internalField   uniform 0.0938;

boundaryField
{
    walls
    {
        type            kqRWallFunction;
        value           uniform 0.0938;
    }
    inlet
    {
        type            fixedValue;
        value           uniform 0.0938;
    }
    outlet
    {
        type            zeroGradient;
    }
    cycLeft_half0
    {
        type            cyclic;
    }
    cycRight_half0
    {
        type            cyclic;
    }
    frontAndBack
    {
        type            empty;
    }
    cycLeft_half1
    {
        type            cyclic;
    }
    cycRight_half1
    {
        type            cyclic;
    }
}


// ************************************************************************* //
