/*--------------------------------*- C++ -*----------------------------------*\
|       o        |                                                            |
|    o     o     |  HELYX (R) : Open-source CFD for Enterprise                |
|   o   O   o    |  Version : 4.4.0                                           |
|    o     o     |  ENGYS Ltd. <http://engys.com/>                            |
|       o        |                                                            |
\*---------------------------------------------------------------------------*/
FoamFile
{
    version     2.0;
    format      binary;
    class       dictionary;
    arch        "LSB;label=32;scalar=64";
    object      controlDict;
}
// * * * * * * * * * * * * * * * * * * * * * * * * * * * * * * * * * * * * * //

application     helyxSolve;

startFrom       latestTime;

startTime       0;

stopAt          nextWrite;

endTime         0.5;

deltaT          0.001;

writeControl    adjustableRunTime;

writeInterval   0.25;

purgeWrite      0;

writeFormat     binary;

writePrecision  10;

writeCompression off;

timeFormat      general;

timePrecision   6;

runTimeModifiable true;

adjustTimeStep  true;

maxCo           1.0;

maxDeltaT       1;

functions
{
    VR_mesh
    {
        functionObjectLibs ( "libreport.so" );
        logToFile       true;
        fields          ( aspectRatio determinant nonOrthogonality skewness volumeRatio );
        executeControl  timeStep;
        type            volumeReport;
        outputFileFormat tsv;
    }
}


// ************************************************************************* //
