/*--------------------------------*- C++ -*----------------------------------*\
|       o        |                                                            |
|    o     o     |  HELYX (R) : Open-source CFD for Enterprise                |
|   o   O   o    |  Version : 4.4.0                                           |
|    o     o     |  ENGYS Ltd. <http://engys.com/>                            |
|       o        |                                                            |
\*---------------------------------------------------------------------------*/
FoamFile
{
    version     2.0;
    format      ascii;
    class       dictionary;
    object      blockMeshDict;
}
// * * * * * * * * * * * * * * * * * * * * * * * * * * * * * * * * * * * * * //

convertToMeters 1;

vertices
(
    (-2.5 -1.2 -3.0)
    ( 2.5 -1.2 -3.0)
    (-2.5  1.2 -3.0)
    ( 2.5  1.2 -3.0)

    (-2.5 -1.2  3.0)
    ( 2.5 -1.2  3.0)
    (-2.5  1.2  3.0)
    ( 2.5  1.2  3.0)
);

blocks
(
    hex (0 1 3 2 4 5 7 6) (50 24 60) simpleGrading (1 1 1)
);

defaultPatch
{
    type patch;
}

boundary ();


// ************************************************************************* //
