/*--------------------------------*- C++ -*----------------------------------*\
|       o        |                                                            |
|    o     o     |  HELYX (R) : Open-source CFD for Enterprise                |
|   o   O   o    |  Version : 4.4.0                                           |
|    o     o     |  ENGYS Ltd. <http://engys.com/>                            |
|       o        |                                                            |
\*---------------------------------------------------------------------------*/
FoamFile
{
    version     2.0;
    format      ascii;
    class       dictionary;
    object      controlDict;
}
// * * * * * * * * * * * * * * * * * * * * * * * * * * * * * * * * * * * * * //

application     helyxSolve;

startFrom       startTime;

startTime       0;

stopAt          endTime;

endTime         10;

deltaT          0.001;

writeControl    adjustableRunTime;

writeInterval   0.1;

purgeWrite      0;

writeFormat     ascii;

writePrecision  6;

writeCompression off;

timeFormat      general;

timePrecision   6;

graphFormat     raw;

runTimeModifiable true;

adjustTimeStep  yes;

maxCo           1;

maxDeltaT       1;

libs            1 ( "" );

functions
{
    VR
    {
        functionObjectLibs ( "libreport.so" );
        logToFile       yes;
        fields          ( U p CH4 O2 N2 );
        executeControl  timeStep;
        type            volumeReport;
        regions         ( default pipe );
        executeInterval 1;
        writeControl    timeStep;
        writeInterval   1;
        outputFileFormat tsv;
    }
    inletPipe
    {
        functionObjectLibs ( "libreport.so" );
        logToFile       yes;
        weighting       area;
        fluxName        phi;
        fields          ( CH4 );
        surfaces        ( { type patch ; name inletPipe ; } );
        constraints     ( );
        executeControl  timeStep;
        type            surfaceReport;
        regions         ( pipe );
    }
    outletPipe
    {
        functionObjectLibs ( "libreport.so" );
        logToFile       yes;
        weighting       area;
        fluxName        phi;
        fields          ( CH4 );
        surfaces        ( { type patch ; name outletPipe ; } );
        constraints     ( );
        executeControl  timeStep;
        type            surfaceReport;
        regions         ( pipe );
    }
    inletSleeve
    {
        functionObjectLibs ( "libreport.so" );
        logToFile       yes;
        weighting       area;
        fluxName        phi;
        fields          ( CH4 );
        surfaces        ( { type patch ; name inletSleeve ; } );
        constraints     ( );
        executeControl  timeStep;
        type            surfaceReport;
        regions         ( default );
    }
    outletSleeve
    {
        functionObjectLibs ( "libreport.so" );
        logToFile       yes;
        weighting       area;
        fluxName        phi;
        fields          ( CH4 );
        surfaces        ( { type patch ; name outletSleeve ; } );
        constraints     ( );
        executeControl  timeStep;
        type            surfaceReport;
        regions         ( default );
    }
}


// ************************************************************************* //
