/*--------------------------------*- C++ -*----------------------------------*\
|       o        |                                                            |
|    o     o     |  HELYX (R) : Open-source CFD for Enterprise                |
|   o   O   o    |  Version : 4.4.0                                           |
|    o     o     |  ENGYS Ltd. <http://engys.com/>                            |
|       o        |                                                            |
\*---------------------------------------------------------------------------*/
FoamFile
{
    version     2.0;
    format      ascii;
    class       dictionary;
    object      controlDict;
}
// * * * * * * * * * * * * * * * * * * * * * * * * * * * * * * * * * * * * * //

application     helyxSolve;

startFrom       startTime;

startTime       0;

stopAt          endTime;

endTime         4;

deltaT          0.001;

writeControl    adjustableRunTime;

writeInterval   0.1;

purgeWrite      0;

writeFormat     ascii;

writePrecision  10;

writeCompression uncompressed;

timeFormat      general;

timePrecision   6;

graphFormat     raw;

runTimeModifiable yes;

libs            1 ( "" );

adjustTimeStep  yes;

maxCo           0.6;

maxDeltaT       0.1;

functions
{
    VR
    {
        functionObjectLibs ( "libreport.so" );
        logToFile       yes;
        fields          ( T U p );
        executeControl  onEnd;
        type            volumeReport;
        writeControl    onEnd;
        outputFileFormat tsv;
    }
    fieldBlending
    {
        functionObjectLibs ( "libfieldFunctionObjects.so" );
        executeControl  timeStep;
        writeControl    writeTime;
        type            fieldBlendingFactor;
        blendingSources 
        (
            zonalDES
            {
                type            zonalDES;
                CDES            1;
                minValue        0;
                maxValue        1;
                minCoeff        0;
                maxCoeff        1;
                functionType    cubic;
                write           false;
            }

        )
;
        fieldBlending   
        (
            U
            {
                stabilise       10;
                blendingSources 
                (
                    cfl1
                    {
                        type            cfl;
                        minValue        2;
                        maxValue        4;
                        minCoeff        1;
                        maxCoeff        0;
                        functionType    cubic;
                        phi             phi;
                        rho             rho;
                        write           false;
                    }

                )
;
            }

        )
;
        regions         1 ( region0 );
    }
}


// ************************************************************************* //
