/*--------------------------------*- C++ -*----------------------------------*\
|       o        |                                                            |
|    o     o     |  HELYX (R) : Open-source CFD for Enterprise                |
|   o   O   o    |  Version : 4.4.0                                           |
|    o     o     |  ENGYS Ltd. <http://engys.com/>                            |
|       o        |                                                            |
\*---------------------------------------------------------------------------*/
FoamFile
{
    version     2.0;
    format      binary;
    class       dictionary;
    arch        "LSB;label=32;scalar=64";
    object      controlDict;
}
// * * * * * * * * * * * * * * * * * * * * * * * * * * * * * * * * * * * * * //

application     helyxSolve;

startFrom       latestTime;

startTime       0;

stopAt          endTime;

endTime         200;

deltaT          constant 1;

writeControl    timeStep;

writeInterval   40;

purgeWrite      0;

writeFormat     binary;

writePrecision  10;

writeCompression uncompressed;

timeFormat      general;

timePrecision   6;

graphFormat     raw;

runTimeModifiable yes;

libs            1 ( "" );

writeEndTime    true;

adjustTimeStep  false;

maxCo           0;

maxAlphaCo      0;

minDeltaT       0;

maxDeltaT       0;

functions
{
    SR
    {
        functionObjectLibs ( "libreport.so" );
        logToFile       yes;
        weighting       area;
        fluxName        phi;
        fields          ( U );
        surfaces        ( { type patch ; name outlet ; } );
        constraints     ( { type boundBox ; min ( -1000 -1000 -1000 ) ; max ( 1000 1000 1000 ) ; keepInside true ; } );
        executeControl  onEnd;
        type            surfaceReport;
        regions         ( region0 );
        homogeneity     false;
        backFlowReport  false;
        directionAware  true;
        writeControl    onEnd;
        outputFileFormat tsv;
    }
}


// ************************************************************************* //
