/*--------------------------------*- C++ -*----------------------------------*\
|       o        |                                                            |
|    o     o     |  HELYX (R) : Open-source CFD for Enterprise                |
|   o   O   o    |  Version : 4.4.0                                           |
|    o     o     |  ENGYS Ltd. <http://engys.com/>                            |
|       o        |                                                            |
\*---------------------------------------------------------------------------*/
FoamFile
{
    version         2.0;
    format          ascii;
    class           dictionary;
    location        system;
    object          probesDict;
}

// * * * * * * * * * * * * * * * * * * * * * * * * * * * * * * * * * * * * //


// Fields to be probed. runTime modifiable!
fields
(
    T H2O p kT
);

// Locations to be probed. runTime modifiable!
probeLocations
(
    (0.005 0.0 0.0)
);

// * * * * * * * * * * * * * * * * * * * * * * * * * * * * * * * * * * * * //
