/*--------------------------------*- C++ -*----------------------------------*\
|       o        |                                                            |
|    o     o     |  HELYX (R) : Open-source CFD for Enterprise                |
|   o   O   o    |  Version : 4.4.0                                           |
|    o     o     |  ENGYS Ltd. <http://engys.com/>                            |
|       o        |                                                            |
\*---------------------------------------------------------------------------*/
FoamFile
{
    version     2.0;
    format      ascii;
    class       volScalarField;
    object      alphat;
}
// * * * * * * * * * * * * * * * * * * * * * * * * * * * * * * * * * * * * * //

dimensions      [1 -1 -1 0 0 0 0];

internalField   uniform 0.001;

boundaryField
{
    bottom
    {
        type            symmetry;
    }
    top
    {
        type            symmetry;
    }
    inlet
    {
        type            calculated;
        value           uniform 0.001;
    }
    outlet
    {
        type            calculated;
        value           uniform 0.001;
    }
    dx
    {
        type            symmetry;
    }
    dy
    {
        type            symmetry;
    }
}


// ************************************************************************* //
