/*--------------------------------*- C++ -*----------------------------------*\
|       o          |                                                          |
|    o     o       | HELYX(R): Open-source CFD for Enterprise                 |
|   o   O   o      | Version: 4.4.0                                           |
|    o     o       | Engys Ltd. http://www.engys.com                          |
|       o          |                                                          |
\*---------------------------------------------------------------------------*/
FoamFile
{
    version 2.0;
    format ascii;
    class dictionary;
    location system;
    object blockMeshDict;
}
    convertToMeters 1;
    
    L 34.3;
    vertices
    (
        ( 0 0.0 0.0 )
        ( $L 0.0 0.0 )
        ( $L 1 0.0 )
        ( 0 1 0.0 )
        ( 0 0.0 1 )
        ( $L 0.0 1 )
        ( $L 1 1 )
        ( 0 1 1 )
    );
    blocks
    (
        hex ( 0 1 2 3 4 5 6 7 ) ( 2500 1 1 ) simpleGrading ( 1 1 1 ) 
    );
    edges ( );
    patches
    (
        wall inlet ( ( 0 4 7 3 ) )
        wall outlet ( ( 1 2 6 5 ) )
        //wall side1 ( ( 0 1 5 4 ) )
        //wall side2 ( ( 3 7 6 2 ) )
        wall bottomWall ( ( 0 3 2 1 ) )
        wall topWall ( ( 4 5 6 7 ) )
    );
    mergePatchPairs ( );
