/*--------------------------------*- C++ -*----------------------------------*\
|       o          |                                                          |
|    o     o       | HELYX(R): Open-source CFD for Enterprise                 |
|   o   O   o      | Version: 4.4.0                                           |
|    o     o       | ENGYS Ltd. <http://engys.com/>                           |
|       o          |                                                          |
\*---------------------------------------------------------------------------*/
FoamFile
{
    version     2.0;
    format      ascii;
    class       dictionary;
    location    "../system";
    object      controlDict;
}
// * * * * * * * * * * * * * * * * * * * * * * * * * * * * * * * * * * * * * //

startFrom       latestTime;

startTime       0;

stopAt          endTime;

endTime         1;

deltaT          0.0001;

writeControl    baselineTime;

writeInterval   0.1;

purgeWrite      0;

writeFormat     ascii;

writePrecision  10;

writeCompression uncompressed;

timeFormat      general;

timePrecision   10;

graphFormat     raw;

runTimeModifiable yes;

libs            ( "" );

adjustTimeStep  yes;

maxCo           20;

maxDeltaT       1;

functions
(
vr1
{
    functionObjectLibs ( "libreport.so" );
    logToFile       yes;
    fields          ( U p );
    region          region0;
    type            volumeReport;
}

)
;


// ************************************************************************* //
