/*--------------------------------*- C++ -*----------------------------------*\
|       o        |                                                            |
|    o     o     |  HELYX (R) : Open-source CFD for Enterprise                |
|   o   O   o    |  Version : 4.4.0                                           |
|    o     o     |  ENGYS Ltd. <http://engys.com/>                            |
|       o        |                                                            |
\*---------------------------------------------------------------------------*/
FoamFile
{
    version     2.0;
    format      ascii;
    class       volScalarField;
    object      p;
}
// * * * * * * * * * * * * * * * * * * * * * * * * * * * * * * * * * * * * * //

dimensions      [1 -1 -2 0 0 0 0];

internalField   uniform 1e5;

boundaryField
{
    movingWall
    {
        type            zeroGradient;
    }

    farFieldMoving
    {
        type            zeroGradient;
    }

    fixedWall
    {
        type            zeroGradient;
    }

    left
    {
        type            totalPressure;
        p0              $internalField;
        U               U;
        phi             phi;
        rho             rho;
        psi             none;
        gamma           1;
        value           $internalField;
    }

    farField
    {
        type            zeroGradient;
    }

    back
    {
        type            wedge;
    }

    front
    {
        type            wedge;
    }
}

// ************************************************************************* //
