/*--------------------------------*- C++ -*----------------------------------*\
|       o        |                                                            |
|    o     o     |  HELYX (R) : Open-source CFD for Enterprise                |
|   o   O   o    |  Version : 4.4.0                                           |
|    o     o     |  ENGYS Ltd. <http://engys.com/>                            |
|       o        |                                                            |
\*---------------------------------------------------------------------------*/
FoamFile
{
    version     2.0;
    format      ascii;
    class       volScalarField;
    object      T;
}
// * * * * * * * * * * * * * * * * * * * * * * * * * * * * * * * * * * * * * //

dimensions      [0 0 0 1 0 0 0];

internalField   uniform 300;

boundaryField
{
    movingWall
    {
        type            zeroGradient;
    }

    farFieldMoving
    {
        type            zeroGradient;
    }

    fixedWall
    {
        type            zeroGradient;
    }

    left
    {
        type            inletOutlet;
        inletValue      $internalField;
    }

    farField
    {
        type            zeroGradient;
    }

    back
    {
        type            wedge;
    }

    front
    {
        type            wedge;
    }
}

// ************************************************************************* //
