/*--------------------------------*- C++ -*----------------------------------*\
|       o        |                                                            |
|    o     o     |  HELYX (R) : Open-source CFD for Enterprise                |
|   o   O   o    |  Version : 4.4.0                                           |
|    o     o     |  ENGYS Ltd. <http://engys.com/>                            |
|       o        |                                                            |
\*---------------------------------------------------------------------------*/
FoamFile
{
    version     2.0;
    format      ascii;
    class       dictionary;
    object      blockMeshDict;
}
// * * * * * * * * * * * * * * * * * * * * * * * * * * * * * * * * * * * * * //

convertToMeters 1;

vertices
(
    (0 0 0)
    (0.07 0 0)
    (0.07 0.18 0)
    (0 0.18 0)
    (0 0 0.001)
    (0.07 0 0.001)
    (0.07 0.18 0.001)
    (0 0.18 0.001)

    (0.07 0.24 0)
    (0 0.24 0)
    (0.07 0.24 0.001)
    (0 0.24 0.001)
);

blocks
(
    hex (0 1 2 3 4 5 6 7) (80 160 1) simpleGrading (1 1 1)
    hex (3 2 8 9 7 6 10 11) (80 52 1) simpleGrading (1 1 1)
);

edges ();

boundary
(
    atmosphere
    {
        type patch;
        faces
        (
            (9 11 10 8)
        );
    }
    walls
    {
        type wall;
        faces
        (
            (3 7 11 9)
            (0 4 7 3)
            (2 6 5 1)
            (2 8 10 6)
        );
    }
    bottom
    {
        type wall;
        faces
        (
            (1 5 4 0)
        );
    }
    front
    {
        type empty;
        faces
        (
            (0 3 2 1)
            (3 9 8 2)
        );
    }
    back
    {
        type empty;
        faces
        (
            (4 5 6 7)
            (7 6 10 11)
        );
    }
);

mergePatchPairs ();


// ************************************************************************* //
