/*--------------------------------*- C++ -*----------------------------------*\
|       o        |                                                            |
|    o     o     |  HELYX (R) : Open-source CFD for Enterprise                |
|   o   O   o    |  Version : 4.4.0                                           |
|    o     o     |  ENGYS Ltd. <http://engys.com/>                            |
|       o        |                                                            |
\*---------------------------------------------------------------------------*/
FoamFile
{
    version     2.0;
    format      binary;
    class       dictionary;
    arch        "LSB;label=32;scalar=64";
    object      controlDict;
}
// * * * * * * * * * * * * * * * * * * * * * * * * * * * * * * * * * * * * * //

application     helyxSolve;

startFrom       latestTime;

startTime       0;

stopAt          endTime;

endTime         50;

deltaT          constant 1;

writeControl    timeStep;

writeInterval   10;

purgeWrite      0;

writeFormat     binary;

writePrecision  10;

writeCompression uncompressed;

timeFormat      general;

timePrecision   6;

graphFormat     raw;

runTimeModifiable true;

libs            2 ( "" "" );

writeEndTime    true;

adjustTimeStep  false;

maxCo           0;

maxAlphaCo      0;

minDeltaT       0;

maxDeltaT       0;

functions
{
    VR
    {
        functionObjectLibs ( "libreport.so" );
        logToFile       true;
        fields          ( U p );
        executeControl  onEnd;
        writeControl    onEnd;
        type            volumeReport;
        outputFileFormat tsv;
    }
}


// ************************************************************************* //
