/*--------------------------------*- C++ -*----------------------------------*\
|       o        |                                                            |
|    o     o     |  HELYX (R) : Open-source CFD for Enterprise                |
|   o   O   o    |  Version : 4.4.0                                           |
|    o     o     |  ENGYS Ltd. <http://engys.com/>                            |
|       o        |                                                            |
\*---------------------------------------------------------------------------*/
FoamFile
{
    version     2.0;
    format      ascii;
    class       dictionary;
    object      helyxHexMeshDict;
}
// * * * * * * * * * * * * * * * * * * * * * * * * * * * * * * * * * * * * * //

#includeEtc "caseDicts/mesh/generation/helyxHexMeshDict.cfg"

castellatedMesh true;
snap            true;
addLayers       true;

geometry
{
    motorBike.obj
    {
        type triSurfaceMesh;
        name motorBike;
    }
    refinementBox
    {
        type searchableBox;
        min (-1.0 -0.7 0.0);
        max ( 8.0  0.7 2.5);
    }
};

castellatedMeshControls
{
    features
    (
        {
            file "motorBike.eMesh";
            level 4;
        }
    );

    refinementSurfaces
    {
        motorBike
        {
            level (3 4);
            patchInfo
            {
                type wall;
                inGroups (motorBikeGroup);
            }
        }
    }

    refinementRegions
    {
        refinementBox
        {
            mode inside;
            levels ((1E15 4));
        }
    }

    locationInMesh (3.0001 3.0001 0.43);
    allowFreeStandingZoneFaces true;
}

snapControls
{
    featureEdges {}
}

addLayersControls
{
    layers
    {
        "(lowerWall|motorBike).*"
        {
            nSurfaceLayers 1;
        }
    }
}

meshQualityControls
{
    minTetQuality 1e-30;
}


// ************************************************************************* //
