/*--------------------------------*- C++ -*----------------------------------*\
|       o        |                                                            |
|    o     o     |  HELYX (R) : Open-source CFD for Enterprise                |
|   o   O   o    |  Version : 4.4.0                                           |
|    o     o     |  ENGYS Ltd. <http://engys.com/>                            |
|       o        |                                                            |
\*---------------------------------------------------------------------------*/
FoamFile
{
    version     2.0;
    format      ascii;
    class       dictionary;
    object      postProcessingDict;
}
// * * * * * * * * * * * * * * * * * * * * * * * * * * * * * * * * * * * * * //

functions
{
    fieldCoordinateSystemTransform1
    {
        // Type of functionObject
        type            fieldCoordinateSystemTransform;

        // Where to load it from (if not already in solver)
        libs            ("libfieldFunctionObjects.so");

        // Function object enabled flag
        enabled         true;

        // When to output the average fields
        writeControl    writeTime;

        // Fields to be transformed - runTime modifiable
        fields
        (
            U
            UMean
            UPrime2Mean
        );

        coordinateSystem
        {
            origin  (0 0 0);
            coordinateRotation
            {
                type    axesRotation;
                e1      (1  0.15  0);
                e3      (0  0    -1);
            }
        }
    }
}

// ************************************************************************* //
