/*--------------------------------*- C++ -*----------------------------------*\
|       o        |                                                            |
|    o     o     |  HELYX (R) : Open-source CFD for Enterprise                |
|   o   O   o    |  Version : 4.4.0                                           |
|    o     o     |  ENGYS Ltd. <http://engys.com/>                            |
|       o        |                                                            |
\*---------------------------------------------------------------------------*/
FoamFile
{
    version     2.0;
    format      ascii;
    class       volVectorField;
    object      U;
}
// * * * * * * * * * * * * * * * * * * * * * * * * * * * * * * * * * * * * * //

dimensions      [0 1 -1 0 0 0 0];

internalField   uniform (0 0 0);

boundaryField
{
    wall-4
    {
        type            noSlip;
    }

    velocity-inlet-5
    {
        type            fixedValue;
        value           uniform (1 0 0);
    }

    velocity-inlet-6
    {
        type            fixedValue;
        value           uniform (0 3 0);
    }

    pressure-outlet-7
    {
        type            zeroGradient;
    }

    wall-8
    {
        type            noSlip;
    }

    frontAndBackPlanes
    {
        type            empty;
    }
}

// ************************************************************************* //
