/*--------------------------------*- C++ -*----------------------------------*\
|       o          |                                                          |
|    o     o       | HELYX(R): Open-source CFD for Enterprise                 |
|   o   O   o      | Version: 4.4.0                                           |
|    o     o       | Engys Ltd. http://www.engys.com                          |
|       o          |                                                          |
\*---------------------------------------------------------------------------*/
FoamFile
{
    version 2.0;
    format ascii;
    class dictionary;
    location system;
    object blockMeshDict;
}
    convertToMeters 1;
    vertices
    (
        ( -1.0 -1.0 -1.0 )
        ( 1.0 -1.0 -1.0 )
        ( 1.0 1.0 -1.0 )
        ( -1.0 1.0 -1.0 )
        ( -1.0 -1.0 1.0 )
        ( 1.0 -1.0 1.0 )
        ( 1.0 1.0 1.0 )
        ( -1.0 1.0 1.0 )
    );
    blocks
    (
        hex ( 0 1 2 3 4 5 6 7 ) ( 10 10 10 ) simpleGrading ( 1 1 1 )
    );
    edges ( );
    boundary
    (
        ffminx
        {
            type    wall;
            faces
            (
                ( 0 4 7 3 )
            );
        }
        ffmaxx
        {
            type    wall;
            faces
            (
                ( 1 2 6 5 )
            );
        }
        ffminy
        {
            type wall;
            faces
            (
                ( 0 1 5 4 )
            );
        }
        ffmaxy
        {
            type wall;
            faces
            (
                ( 3 7 6 2 )
            );
        }
        ffminz
        {
            type wall;
            faces
            (
                ( 0 3 2 1 )
            );
        }
        ffmaxz
        {
            type wall;
            faces
            (
                ( 4 5 6 7 )
            );
        }
    );
    mergePatchPairs ( );

