/*--------------------------------*- C++ -*----------------------------------*\
|       o        |                                                            |
|    o     o     |  HELYX (R) : Open-source CFD for Enterprise                |
|   o   O   o    |  Version : 4.4.0                                           |
|    o     o     |  ENGYS Ltd. <http://engys.com/>                            |
|       o        |                                                            |
\*---------------------------------------------------------------------------*/
FoamFile
{
    version     2.0;
    format      ascii;
    class       dictionary;
    object      materialProperties;
}

// * * * * * * * * * * * * * * * * * * * * * * * * * * * * * * * * * * * * * //

materialType    fluid;
muModel         scalarFunction1;
kappaModel      kappaPrandtl;
thermodynamics  hConst;
equationOfState perfectGas;
energy          sensibleInternalEnergy;
molWeight       28.96;

thermodynamicsCoeffs
{
    Cp              1004.5;
    Hf              2.544e+06;
}
muModelCoeffs
{
    mu              0;
}
kappaModelCoeffs
{
    Pr              1;
}


// ************************************************************************* //
