/*--------------------------------*- C++ -*----------------------------------*\
|       o        |                                                            |
|    o     o     |  HELYX (R) : Open-source CFD for Enterprise                |
|   o   O   o    |  Version : 4.4.0                                           |
|    o     o     |  ENGYS Ltd. <http://engys.com/>                            |
|       o        |                                                            |
\*---------------------------------------------------------------------------*/
FoamFile
{
    version     2.0;
    format      ascii;
    class       dictionary;
    object      dynamicMeshDict;
}
// * * * * * * * * * * * * * * * * * * * * * * * * * * * * * * * * * * * * * //

mover
{
    type            motionSolver;
    libs            ( "libfvMeshMovers.so" "libfvMotionSolvers.so" );
    motionSolver    motionSolverList;
    solvers
    {
        cylinder
        {
            solver          solidBody;
            cellZone        cyl_interior;
            referenceFrame  rotatingFrame;
        }
    }
}


// ************************************************************************* //
