/*--------------------------------*- C++ -*----------------------------------*\
|       o        |                                                            |
|    o     o     |  HELYX (R) : Open-source CFD for Enterprise                |
|   o   O   o    |  Version : 4.4.0                                           |
|    o     o     |  ENGYS Ltd. <http://engys.com/>                            |
|       o        |                                                            |
\*---------------------------------------------------------------------------*/
FoamFile
{
    version     2.0;
    format      ascii;
    class       dictionary;
    object      controlDict;
}
// * * * * * * * * * * * * * * * * * * * * * * * * * * * * * * * * * * * * * //

application     helyxSolve;

startFrom       startTime;

startTime       0;

stopAt          endTime;

endTime         0.05;

deltaT          1e-4;

writeControl    adjustableRunTime;

writeInterval   1e-2;

purgeWrite      0;

writeFormat     ascii;

writePrecision  10;

writeCompression off;

timeFormat      general;

timePrecision   6;

runTimeModifiable true;

adjustTimeStep  no;

maxCo           0.5;

functions
{
    probes
    {
        type            probes;
        name            probes;
        libs            ("libsampling.so");
        writeControl    timeStep;
        writeInterval   1;
        fields          (p);
        probeLocations
        (
            ( -0.045  0     0 )
            ( -0.045  0.020 0 )
            ( -0.010  0     0 )
            (  0.0125 0     0 )
            (  0.0125 0.020 0 )
        );
    }
    VR
    {
        type             volumeReport;
        fields           ( U p T );
        executeControl   onEnd;
        writeControl     onEnd;
        outputFileFormat tsv;
    }
}


// ************************************************************************* //
