FoamFile
{
    version         2.0;
    format          ascii;
    class           dictionary;
    object          IAPWS-IF97EOS;
}

// Gas constant for water [J/(kgK)]
R 461.526;

// Molar mass of ordinary water [kg/kmol]
molWeight 18.015257;

// Critical temperature [K]
Tc 647.096;

// Critical pressure [Pa]
pc 22.064e6;

// Critical density [kg/m^3]
rhoc 322;

// Maximum pressure 1
pMax1 50e6;

// Maximum pressure 2
pMax2 100e6;

muModelCoeffs
{
    // Validity
    Tmax1 1073; // for pressure to 100MPa
    Tmax2 1173; // T 1073 - 1173 (pMax 50MPa)
    pMax1 $pMax1;
    pMax2 $pMax2;

    n0
    (
        0.167752e-1
        0.220462e-1
        0.6366564e-2
        -0.241605e-2
    );
    I
    (
        0
        0
        0
        0
        1
        1
        1
        1
        1
        2
        2
        2
        2
        2
        3
        3
        4
        4
        5
        6
        6
    );
    J
    (
        0
        1
        2
        3
        0
        1
        2
        3
        5
        0
        1
        2
        3
        4
        0
        1
        0
        3
        4
        3
        5
    );
    n
    (
        0.520094
        0.850895e-1
        -0.108374e1
        -0.289555
        0.222531
        0.999115
        0.188797e1
        0.126613e1
        0.120573
        -0.281378
        -0.906851
        -0.772479
        -0.489837
        -0.257040
        0.161913
        0.257399
        -0.325372e-1
        0.698452e-1
        0.872102e-2
        -0.435673e-2
        -0.593264e-3
    );
}

kappaModelCoeffs
{
    // Slightly different R for kappa model
    R 416.51805;
    LAMBDA0
    {
        n
        (
            0.2443221e-2
            0.1323095e-1
            0.6770357e-2
            -0.3454586e-2
            0.4096266e-3
        );
    }

    LAMBDA1
    {
        n1
        (
            0.160397357e1
            0.233771842e1
            0.219650529e1
            -0.121051378e1
            -0.272033700e1
        );
        n2
        (
            -0.646013523
            -0.278843778e1
            -0.454580785e1
            0.160812989e1
            0.457586331e1
        );
        n3
        (
            0.111443906
            0.153616167e1
            0.355777244e1
            -0.621178141
            -0.318369245e1
        );
        n4
        (
            0.102997357
            -0.463045512
            -0.140944978e1
            0.716373224e-1
            0.111683480e1
        );
        n5
        (
            -0.504123634e-1
            0.832827019e-1
            0.275418278
            0
            -0.192683050
        );
        n6
        (
            0.609859258e-2
            -0.719201245e-2
            -0.205938816e-1
            0
            0.129138420e-1
        );
    }

    LAMBDA2
    {
        n
        (
            0.1778514e3
            0.636619772367581
            0.135882142589674e1
            0.508474576271
            1.5
        );


        // delta <= 0.310559006
        delta1 0.310559006;
        n1
        (
            0.653786807199516e1
            -0.561149954923348e1
            0.339624167361325e1
            -0.227492629730878e1
            0.102631854662709e2
            0.197815050331519e1
        );

        // 0.310559006 < delta <= 0.776397516
        delta2 0.776397516;
        n2
        (
            0.652717759281799e1
            -0.630816983387575e1
            0.808379285492595e1
            -0.982240510197603e1
            0.121358413791395e2
            -0.554349664571295e1
        );

        // 0.776397516< delta <= 1.242236025
        delta3 1.242236025;
        n3
        (
            0.535500529896124e1
            -0.396415689925446e1
            0.891990208918795e1
            -0.120338 729505790e2
            0.919494865194302e1
            -0.216866274479712e1
        );

        // 1.242236025 < delta <= 1.863354037
        delta4 1.863354037;
        n4
        (
            0.155225959906681e1
            0.464621290821181
            0.893237374861479e1
            -0.110321960061126e2
            0.616780999933360e1
            -0.965458722086812
        );

        // delta > 1.863354037
        n5
        (
            0.111999926419994e1
            0.595748562571649
            0.988952565078920e1
            -0.103255051147040e2
            0.466861294457414e1
            -0.503243546373828
        );
    }

}

// Line region 23 (quadratic equation coeffs)
boundary23
{
    // Equation pB23 = (n1 + n2*T + n3*T^2)*1e6
    // n coefficients
    n
    (
        0.34805185628969e3
        -0.116718598799e1
        0.10192970039326e-2
        0.57254459862746e3
        0.13918839778870e2
    );

    // Validity
    Tmin 623.15;
    Tmax 863.15;
    pmin 16.5292e6;
    pmax 100e6;
}

saturationCurve
{
    // In the standard it is called region 4
    n
    (
        0.11670521452767E4
        -0.72421316703206E6
        -0.17073846940092E2
        0.12020824702470E5
        -0.32325550322333E7
        0.14915108613530E2
        -0.48232657361591E4
        0.40511340542057E6
        -0.23855557567849
        0.65017534844798E3
    );
}

GibbsFreeEnergyRegion1
{
    pStar 16.53e6;
    TStar 1386;
    R $R;
    I
    (
        0
        0
        0
        0
        0
        0
        0
        0
        1
        1
        1
        1
        1
        1
        2
        2
        2
        2
        2
        3
        3
        3
        4
        4
        4
        5
        8
        8
        21
        23
        29
        30
        31
        32
    );

    J
    (
        -2
        -1
        0
        1
        2
        3
        4
        5
        -9
        -7
        -1
        0
        1
        3
        -3
        0
        1
        3
        17
        -4
        0
        6
        -5
        -2
        10
        -8
        -11
        -6
        -29
        -31
        -38
        -39
        -40
        -41
    );

    n
    (
        0.14632971213167
        -0.84548187169114
        -0.37563603672040E1
        0.33855169168385E1
        -0.95791963387872
        0.15772038513228
        -0.16616417199501E-1
        0.81214629983568E-3
        0.28319080123804E-3
        -0.60706301565874E-3
        -0.18990068218419E-1
        -0.32529748770505E-1
        -0.21841717175414E-1
        -0.52838357969930E-4
        -0.47184321073267E-3
        -0.30001780793026E-3
        0.47661393906987E-4
        -0.44141845330846E-5
        -0.72694996297594E-15
        -0.31679644845054E-4
        -0.28270797985312E-5
        -0.85205128120103E-9
        -0.22425281908000E-5
        -0.65171222895601E-6
        -0.14341729937924E-12
        -0.40516996860117E-6
        -0.12734301741641E-8
        -0.17424871230634E-9
        -0.68762131295531E-18
        0.14478307828521E-19
        0.26335781662795E-22
        -0.11947622640071E-22
        0.18228094581404E-23
        -0.93537087292458E-25
    );
}

GibbsFreeEnergyRegion2
{
    pStar 1e6;
    TStar 540;
    R $R;
    J0
    (
        0
        1
        -5
        -4
        -3
        -2
        -1
        2
        3
    );

    n0
    (
        -0.96927686500217E1
        0.10086655968018E2
        -0.56087911283020E-2
        0.71452738081455E-1
        -0.40710498223928
        0.14240819171444E1
        -0.43839511319450E1
        -0.28408632460772
        0.21268463753307E-1
    );

    I
    (
        1
        1
        1
        1
        1
        2
        2
        2
        2
        2
        3
        3
        3
        3
        3
        4
        4
        4
        5
        6
        6
        6
        7
        7
        7
        8
        8
        9
        10
        10
        10
        16
        16
        18
        20
        20
        20
        21
        22
        23
        24
        24
        24
    );

    J
    (
        0
        1
        2
        3
        6
        1
        2
        4
        7
        36
        0
        1
        3
        6
        35
        1
        2
        3
        7
        3
        16
        35
        0
        11
        25
        8
        36
        13
        4
        10
        14
        29
        50
        57
        20
        35
        48
        21
        53
        39
        26
        40
        58
    );

    n
    (
        -1.7731742473213E-03
        -1.7834862292358E-02
        -4.5996013696365E-02
        -5.7581259083432E-02
        -5.0325278727930E-02
        -3.3032641670203E-05
        -1.8948987516315E-04
        -3.9392777243355E-03
        -4.3797295650573E-02
        -2.6674547914087E-05
        2.0481737692309E-08
        4.3870667284435E-07
        -3.2277677238570E-05
        -1.5033924542148E-03
        -4.0668253562649E-02
        -7.8847309559367E-10
        1.2790717852285E-08
        4.8225372718507E-07
        2.2922076337661E-06
        -1.6714766451061E-11
        -2.1171472321355E-03
        -2.3895741934104E+01
        -5.9059564324270E-18
        -1.2621808899101E-06
        -3.8946842435739E-02
        1.1256211360459E-11
        -8.2311340897998E+00
        1.9809712802088E-08
        1.0406965210174E-19
        -1.0234747095929E-13
        -1.0018179379511E-09
        -8.0882908646985E-11
        1.0693031879409E-01
        -3.3662250574171E-01
        8.9185845355421E-25
        3.0629316876232E-13
        -4.2002467698208E-06
        -5.9056029685639E-26
        3.7826947613457E-06
        -1.2768608934681E-15
        7.3087610595061E-29
        5.5414715350778E-17
        -9.4369707241210E-07
    );
}

GibbsFreeEnergyRegion3
{
    Tc $Tc;
    rhoc $rhoc;
    R $R;
    I
    (
        0
        0
        0
        0
        0
        0
        0
        0
        1
        1
        1
        1
        2
        2
        2
        2
        2
        2
        3
        3
        3
        3
        3
        4
        4
        4
        4
        5
        5
        5
        6
        6
        6
        7
        8
        9
        9
        10
        10
        11
    );

    J
    (
        0
        0
        1
        2
        7
        10
        12
        23
        2
        6
        15
        17
        0
        2
        6
        7
        22
        26
        0
        2
        4
        16
        26
        0
        2
        4
        26
        1
        3
        26
        0
        2
        26
        2
        26
        2
        26
        0
        1
        26
    );

    n
    (
         0.10658070028513E1
        -0.15732845290239E2
        0.20944396974307E2
        -0.76867707878716E1
        0.26185947787954E1
        -0.28080781148620E1
        0.12053369696517E1
        -0.84566812812502E-2
        -0.12654315477714E1
        -0.11524407806681E1
        0.88521043984318
        -0.64207765181607
        0.38493460186671
        -0.85214708824206
        0.48972281541877E1
        -0.30502617256965E1
        0.39420536879154E-1
        0.12558408424308
        -0.27999329698710
        0.13899799569460E1
        -0.20189915023570E1
        -0.82147637173963E-2
        -0.47596035734923
        0.43984074473500E-1
        -0.44476435428739
        0.90572070719733
        0.70522450087967
        0.10770512626332
        -0.32913623258954
        -0.50871062041158
        -0.22175400873096E-1
        0.94260751665092E-1
        0.16436278447961
        -0.13503372241348E-1
        -0.14834345352472E-1
        0.57922953628084E-3
        0.32308904703711E-2
        0.80964802996215E-4
        -0.16557679795037E-3
        -0.44923899061815E-4
    );
}

GibbsFreeEnergyRegion5
{
    pStar 1e6;
    TStar 1000;
    R $R;
    I0
    (
        1
        2
        3
        4
        5
        6
    );


    J0
    (
        0
        1
        -3
        -2
        -1
        2
    );


    n0
    (
        -1.3179983674201E+01
        6.8540841634434E+00
        -2.4805148933466E-02
        3.6901534980333E-01
        -3.1161318213925E+00
        -3.2961626538917E-01
    );

    I
    (
        1
        1
        1
        2
        2
        3
    );

    J
    (
        1
        2
        3
        3
        9
        7
    );

    n
    (
        0.15736404855259E-2
        0.90153761673944E-3
        -0.50270077677648E-2
        0.22440037409485E-5
        -0.41163275453471E-5
        0.37919454822955E-7
    );
}
