/*--------------------------------*- C++ -*----------------------------------*\
|       o        |                                                            |
|    o     o     |  HELYX (R) : Open-source CFD for Enterprise                |
|   o   O   o    |  Version : 4.4.0                                           |
|    o     o     |  ENGYS Ltd. <http://engys.com/>                            |
|       o        |                                                            |
\*---------------------------------------------------------------------------*/
FoamFile
{
    version     2.0;
    format      ascii;
    class       pointVectorField;
    object      pointDisplacement;
}
// * * * * * * * * * * * * * * * * * * * * * * * * * * * * * * * * * * * * * //

dimensions      [0 1 0 0 0 0 0];

internalField   uniform (0 0 0);

boundaryField
{
    #includeEtc "caseDicts/setConstraintTypes"

    inlet
    {
        type            fixedValue;
        value           $internalField;
    }
    outlet
    {
        type            fixedValue;
        value           $internalField;
    }
    sides
    {
        type            fixedValue;
        value           $internalField;
    }
    wing1
    {
        type            fixedValue;
        value           $internalField;
    }
    wing2
    {
        // Make wing2 rotate around its centre
        type           solidBodyMotionDisplacement;
        referenceFrame oscillatingFrame;
    }
    AMI_dualWing
    {
        patchType       cyclicAMI;
        type            fixedValue;
        value           $internalField;
    }
    AMI_dualWing_slave
    {
        patchType       cyclicAMI;
        type            fixedValue;
        value           $internalField;
    }
}


// ************************************************************************* //
