/*--------------------------------*- C++ -*----------------------------------*\
|       o        |                                                            |
|    o     o     |  HELYX (R) : Open-source CFD for Enterprise                |
|   o   O   o    |  Version : 4.4.0                                           |
|    o     o     |  ENGYS Ltd. <http://engys.com/>                            |
|       o        |                                                            |
\*---------------------------------------------------------------------------*/
FoamFile
{
    version     2.0;
    format      ascii;
    class       dictionary;
    object      controlDict;
}
// * * * * * * * * * * * * * * * * * * * * * * * * * * * * * * * * * * * * * //

application     helyxSolve;

startFrom       latestTime;

startTime       0;

stopAt          endTime;

endTime         1000;

deltaT          1;

writeControl    timeStep;

writeInterval   500;

purgeWrite      0;

writeFormat     ascii;

writePrecision  10;

writeCompression uncompressed;

timeFormat      general;

timePrecision   6;

graphFormat     raw;

runTimeModifiable yes;

libs            1 ( "" );

writeEndTime    true;

functions
{
    VR
    {
        functionObjectLibs ( "libreport.so" );
        logToFile       yes;
        fields          ( T U k omega p w mist );
        executeControl  timeStep;
        type            volumeReport;
        regions         ( region0 );
        writeControl    timeStep;
        writeInterval   1;
        executeInterval 1;
        outputFileFormat tsv;
    }
    SR_in
    {
        functionObjectLibs ( "libreport.so" );
        logToFile       yes;
        weighting       flux;
        fluxName        phi;
        fields          ( T U p w mist );
        surfaces        ( { type patch ; name in ; } );
        constraints     ( { type boundBox ; min ( -1000 -1000 -1000 ) ; max ( 1000 1000 1000 ) ; keepInside true ; } );
        executeControl  timeStep;
        type            surfaceReport;
        regions         ( region0 );
        homogeneity     false;
        writeControl    timeStep;
        writeInterval   1;
        executeInterval 1;
    }
    SR_out
    {
        functionObjectLibs ( "libreport.so" );
        logToFile       yes;
        weighting       flux;
        fluxName        phi;
        fields          ( T U p w mist );
        surfaces        ( { type patch ; name out ; } );
        constraints     ( { type boundBox ; min ( -1000 -1000 -1000 ) ; max ( 1000 1000 1000 ) ; keepInside true ; } );
        executeControl  timeStep;
        type            surfaceReport;
        regions         ( region0 );
        homogeneity     false;
        writeControl    timeStep;
        writeInterval   1;
        executeInterval 1;
    }
}


// ************************************************************************* //
