/*--------------------------------*- C++ -*----------------------------------*\
|       o        |                                                            |
|    o     o     |  HELYX (R) : Open-source CFD for Enterprise                |
|   o   O   o    |  Version : 4.4.0                                           |
|    o     o     |  ENGYS Ltd. <http://engys.com/>                            |
|       o        |                                                            |
\*---------------------------------------------------------------------------*/
FoamFile
{
    version     2.0;
    format      ascii;
    class       dictionary;
    object      controlDict;
}
// * * * * * * * * * * * * * * * * * * * * * * * * * * * * * * * * * * * * * //

application     helyxSolve;

startFrom       startTime;

startTime       0;

stopAt          endTime;

endTime         4;

deltaT          0.001;

writeControl    adjustableRunTime;

writeInterval   0.1;

purgeWrite      0;

writeFormat     ascii;

writePrecision  10;

writeCompression uncompressed;

timeFormat      general;

timePrecision   6;

graphFormat     raw;

runTimeModifiable yes;

libs            1 ( "" );

adjustTimeStep  yes;

maxCo           1;

maxDeltaT       1;

functions
{
    VR
    {
        functionObjectLibs ( "libreport.so" );
        logToFile       yes;
        fields          ( U p );
        executeControl  timeStep;
        type            volumeReport;
        regions         ( region0 );
        writeControl    timeStep;
        writeInterval   1;
        executeInterval 1;
        outputFileFormat tsv;
    }
    inletFlowRate
    {
        type            surfaceFieldValue;
        libs            ( "libfieldFunctionObjects.so" );
        writeFields     false;
        log             false;
        regionType      patch;
        name            inlet;
        fields          ( phi );
        operation       sum;
        executeControl  onEnd;
        writeControl    onEnd;
    }
    outletFlowRate
    {
        type            surfaceFieldValue;
        libs            ( "libfieldFunctionObjects.so" );
        writeFields     false;
        log             false;
        regionType      patch;
        name            outlet;
        fields          ( phi );
        operation       sum;
        executeControl  onEnd;
        writeControl    onEnd;
    }
}


// ************************************************************************* //
