/*--------------------------------*- C++ -*----------------------------------*\
|       o        |                                                            |
|    o     o     |  HELYX (R) : Open-source CFD for Enterprise                |
|   o   O   o    |  Version : 4.4.0                                           |
|    o     o     |  ENGYS Ltd. <http://engys.com/>                            |
|       o        |                                                            |
\*---------------------------------------------------------------------------*/
FoamFile
{
    version     2.0;
    format      ascii;
    class       dictionary;
    object      createPatchDict;
}
// * * * * * * * * * * * * * * * * * * * * * * * * * * * * * * * * * * * * * //

pointSync false;

patches
(
    {
        name            AMI1;
        patchInfo
        {
            type            cyclicAMI;
            matchTolerance  0.0001;
            neighbourPatch  AMI2;
        }
        constructFrom patches;
        patches (innerCylinderSmall);
    }
    {
        name            AMI2;
        patchInfo
        {
            type            cyclicAMI;
            matchTolerance  0.0001;
            neighbourPatch  AMI1;
        }
        constructFrom patches;
        patches (innerCylinderSmall_slave);
    }
    {
        name inlet;
        patchInfo
        {
            type            patch;
        }
        constructFrom set;
        set inletFaces;
    }
    {
        name outlet;
        patchInfo
        {
            type            patch;
        }
        constructFrom set;
        set outletFaces;
    }
);


// ************************************************************************* //
