/*--------------------------------*- C++ -*----------------------------------*\
|       o        |                                                            |
|    o     o     |  HELYX (R) : Open-source CFD for Enterprise                |
|   o   O   o    |  Version : 4.4.0                                           |
|    o     o     |  ENGYS Ltd. <http://engys.com/>                            |
|       o        |                                                            |
\*---------------------------------------------------------------------------*/
FoamFile
{
    version     2.0;
    format      ascii;
    class       dictionary;
    object      caseSetupDict;
}
// * * * * * * * * * * * * * * * * * * * * * * * * * * * * * * * * * * * * * //

global
{
    modificationSwitches
    {
        resetInternalFields true;
        resetBoundaryFields true;
        resetSystemDicts true;
        resetConstDicts true;
        resetBoundaryMesh true;
        deleteUnusedFields true;
        reuseExistingDicts false;
        strictPatchNameChecking false;
    }
    system
    {
        controlDict
        {
            application helyxSolve;
            startFrom latestTime;
            startTime 0;
            stopAt endTime;
            endTime 0.1;
            deltaT constant 2e-4;
            writeControl runTime;
            writeInterval 0.01;
            purgeWrite 10;
            writeFormat binary;
            writePrecision 10;
            writeCompression uncompressed;
            writeEndTime true;
            timeFormat general;
            timePrecision 8;
            graphFormat raw;
            runTimeModifiable yes;
            adjustTimeStep false;
            maxCo 0;
            maxDeltaT 0;
            maxAlphaCo 0;
            minDeltaT 0;
        }
        meshObjects
        {
            bottomGear
            {
                type motionCoordinateFrame;
                motionFunction
                {
                    type rotatingMotion;
                    omega 47.13;
                }
                coordinateSystem
                {
                    type cylindrical;
                    origin ( 0.0 -0.048 0.0 );
                    e1 ( 1.0 0.0 0.0 );
                    e3 ( 0.0 0.0 1.0 );
                }
            }
            topGear
            {
                type motionCoordinateFrame;
                motionFunction
                {
                    type rotatingMotion;
                    omega 47.13;
                }
                coordinateSystem
                {
                    type cylindrical;
                    origin ( 0.0 0.0 0.0 );
                    e1 ( 1.0 0.0 0.0 );
                    e3 ( 0.0 0.0 -1.0 );
                }
            }
        }
    }
    functions
    {
        VR
        {
            type             volumeReport;
            fields           ( U p );
            executeControl   onEnd;
            writeControl     onEnd;
            outputFileFormat tsv;
        }
        SR_inlet
        {
            type surfaceReport;
            regions ( region0 );
            fields ( U p );
            weighting flux;
            fluxName phi;
            homogeneity false;
            backFlowReport false;
            directionAware true;
            surfaces
            (
                {
                    type patch;
                    name inlet;
                }
            );
            constraints
            (
                {
                    type boundBox;
                    min ( -1000.0 -1000.0 -1000.0 );
                    max ( 1000.0 1000.0 1000.0 );
                    keepInside true;
                }
            );
            writeControl timeStep;
            writeInterval 1;
            executeControl timeStep;
            executeInterval 1;
            functionObjectLibs ( "libreport.so" );
        }
        SR_outlet
        {
            type surfaceReport;
            regions ( region0 );
            fields ( U p );
            weighting flux;
            fluxName phi;
            homogeneity false;
            backFlowReport true;
            directionAware true;
            surfaces
            (
                {
                    type patch;
                    name outlet;
                }
            );
            constraints
            (
                {
                    type boundBox;
                    min ( -1000.0 -1000.0 -1000.0 );
                    max ( 1000.0 1000.0 1000.0 );
                    keepInside true;
                }
            );
            writeControl timeStep;
            writeInterval 1;
            executeControl timeStep;
            executeInterval 1;
            functionObjectLibs ( "libreport.so" );
        }
    }
}

regions
{
    region0
    {
        state (transient ras dynamic);
        boundaryMesh
        {
            Case { type wall; }
            inlet { type inlet; }
            outlet { type outlet; }
            Gears
            {
                type indirectWall;
                faceZone Gears;
                indirectPolyPatchType master;
            }
            Gears_slave
            {
                type inactive;
                faceZone Gears;
                indirectPolyPatchType slave;
            }
        }
        turbulenceModel kOmegaSST;
        materials (oil);
        materialProperties
        {
            oil
            {
                materialName oil;
                materialType fluid;
                molWeight 1.0;
                energy sensibleEnthalpy;
                equationOfState rhoConst;
                equationOfStateCoeffs
                {
                    rho 500.0;
                }
                muModel scalarFunction1;
                muModelCoeffs
                {
                    mu constant 0.05;
                }
                thermodynamics hConst;
                thermodynamicsCoeffs
                {
                    Hf 1.0;
                    Cp 4195.0;
                }
                kappaModel scalarFunction1;
                kappaModelCoeffs
                {
                    kappa 0.007;
                }
                buoyancyModelCoeffs
                {
                    beta 0.0;
                }
                referenceFields
                {
                    p [1 -1 -2 0 0 0 0] 101325.0;
                    TConst [0 0 0 1 0 0 0] 0.0;
                }
            }
        }
        constant
        {
            g
            {
                value ( 0.0 0.0 -9.81 );
                dimensions [0  1 -2  0 0 0 0];
            }
            turbulenceProperties
            {
                simulationType RAS;
                RAS
                {
                    RASModel kOmegaSST;
                    turbulence on;
                    printCoeffs on;
                    kOmegaSSTCoeffs
                    {
                        curvature true;
                    }
                }
            }
            dynamicMeshDict
            {
                GIBChanger
                {
                    type            solidBody;
                    libs            ("libfvMeshGIBChangers.so");

                    solidBodyCoeffs
                    {
                        triSurfaceName Gears.stl;
                        region0Patch ( inlet );
                        solverMotionFunctions
                        {
                            motionSolver multiSolidBodyGIBMotionSolver;
                            multiSolidBodyGIBMotionSolverCoeffs
                            {
                                triSurfaceName Gears.stl;
                                regionNames ( Gear2 Gear1 );
                                referenceFrames ( bottomGear topGear );
                            }
                        }
                    }
                }
            }
        }
        system
        {
            fvSchemes
            {
                ddtSchemes
                {
                    default smartBounded Euler;
                }
                gradSchemes
                {
                    default cellLimited Gauss linear 1.0;
                    turbulence cellLimited Gauss linear 1.0;
                    gradU cellLimited Gauss linear 1.0;
                    grad(p) Gauss linear;
                    grad(k) cellLimited Gauss linear 1.0;
                    grad(omega) cellLimited Gauss linear 1.0;
                }
                divSchemes
                {
                    div(phi,U) bounded Gauss linearUpwindV gradU;
                    default none;
                    div(R) Gauss linear;
                    div((rho*R)) Gauss linear;
                    div(nonlinearStress) Gauss linear;
                    div((muEff*dev2(grad(U).T()))) Gauss linear;
                    div((nuEff*dev2(T(grad(U))))) Gauss linear;
                    div(((rho*nuEff)*dev2(T(grad(U))))) Gauss linear;
                    div((nu*dev2(T(grad(U))))) Gauss linear;
                    div(((rho*(mu|rho))*dev2(T(grad(U))))) Gauss linear;
                    div(phi,k) bounded Gauss limitedLinear 1.000000;
                    div(phi,symm(grad(U))) Gauss linearUpwind turbulence;
                    div(phi,omega) bounded Gauss limitedLinear 1.000000;
                    div(meshPhi,p) Gauss linear;
                }
                laplacianSchemes
                {
                    default Gauss linear limited 0.333;
                    laplacian((rho*DomegaEff),omega) omegaGauss linear corrected;
                    laplacian((rho*DkEff),k) Gauss linear limited 0.333;
                    laplacian(diffusivity,cellDisplacement) Gauss linear uncorrected;
                    laplacian(diffusivity,cellMotionU) Gauss linear uncorrected;
                }
                interpolationSchemes
                {
                    default linear;
                    interpolate(HbyA) linear;
                }
                snGradSchemes
                {
                    default limited 0.333;
                }
                wallDist
                {
                    method meshWave;
                }
                fluxRequired
                {
                    pcorr ;
                }
            }
            fvSolution
            {
                solvers
                {
                    p
                    {
                        solver GAMG;
                        agglomerator faceAreaPair;
                        mergeLevels 1;
                        cacheAgglomeration true;
                        nCellsInCoarsestLevel 200;
                        smoother symGaussSeidel;
                        minIter 1;
                        scaleCorrection true;
                        tolerance 1e-10;
                        relTol 0.01;
                    }
                    U
                    {
                        solver smoothSolver;
                        smoother symGaussSeidel;
                        minIter 1;
                        tolerance 1e-6;
                        relTol 0.1;
                    }
                    pFinal
                    {
                        solver GAMG;
                        agglomerator faceAreaPair;
                        mergeLevels 1;
                        cacheAgglomeration true;
                        nCellsInCoarsestLevel 200;
                        smoother symGaussSeidel;
                        minIter 1;
                        scaleCorrection true;
                        tolerance 1e-6;
                        relTol 0.0;
                    }
                    UFinal
                    {
                        solver smoothSolver;
                        smoother symGaussSeidel;
                        minIter 1;
                        tolerance 1e-6;
                        relTol 0.0;
                    }
                    rho
                    {
                        solver PCG;
                        preconditioner DIC;
                        tolerance 0.0;
                        relTol 0.0;
                    }
                    rhoFinal
                    {
                        solver PCG;
                        preconditioner DIC;
                        tolerance 0.0;
                        relTol 0.0;
                    }
                    k
                    {
                        solver smoothSolver;
                        smoother symGaussSeidel;
                        minIter 1;
                        tolerance 1e-06;
                        relTol 0.1;
                    }
                    kFinal
                    {
                        solver smoothSolver;
                        smoother symGaussSeidel;
                        minIter 1;
                        tolerance 1e-06;
                        relTol 0.0;
                    }
                    omega
                    {
                        solver smoothSolver;
                        smoother symGaussSeidel;
                        minIter 1;
                        tolerance 1e-06;
                        relTol 0.1;
                    }
                    omegaFinal
                    {
                        solver smoothSolver;
                        smoother symGaussSeidel;
                        minIter 1;
                        tolerance 1e-06;
                        relTol 0.0;
                    }
                    pcorr
                    {
                        solver GAMG;
                        agglomerator faceAreaPair;
                        mergeLevels 1;
                        cacheAgglomeration true;
                        nCellsInCoarsestLevel 200;
                        tolerance 1e-10;
                        relTol 0.01;
                        smoother DICGaussSeidel;
                        nPreSweeps 0;
                        nPostSweeps 2;
                        nFinestSweeps 2;
                        minIter 1;
                    }
                    pcorrFinal
                    {
                        solver GAMG;
                        agglomerator faceAreaPair;
                        mergeLevels 1;
                        cacheAgglomeration true;
                        nCellsInCoarsestLevel 200;
                        tolerance 1e-10;
                        relTol 0.01;
                        smoother DICGaussSeidel;
                        nPreSweeps 0;
                        nPostSweeps 2;
                        nFinestSweeps 2;
                        minIter 1;
                    }
                    cellMotionU
                    {
                        solver PCG;
                        preconditioner DIC;
                        tolerance 1e-08;
                        relTol 0;
                        minIter 1;
                    }
                    cellDisplacement
                    {
                        solver GAMG;
                        tolerance 1e-08;
                        relTol 0;
                        smoother GaussSeidel;
                        cacheAgglomeration true;
                        nCellsInCoarsestLevel 10;
                        agglomerator faceAreaPair;
                        mergeLevels 1;
                        minIter 1;
                    }
                }
                relaxationFactors
                {
                    fields
                    {
                        p 0.3;
                        rho 1.0;
                        pFinal 1;
                    }
                    equations
                    {
                        U 0.7;
                        UFinal 1.0;
                        k 0.4;
                        kFinal 1.0;
                        omega 0.4;
                        omegaFinal 1.0;
                    }
                }
                PIMPLE
                {
                    residualControl
                    {
                        ".*"
                        {
                            relTol 0.0;
                            tolerance 0.001;
                        }
                    }
                    turbOnFinalIterOnly false;
                    ddtPhiCorr true;
                    momentumPredictor yes;
                    nOuterCorrectors 5;
                    nCorrectors 1;
                    correctPhi true;
                }
                cache { grad(U); }
            }
            fvOptions
            {
                fvMeshSolver
                {
                    type fvMeshSolver;
                    solveInterval 0;
                    solveInitial true;
                }
                velocityLimiter
                {
                    type velocityLimiterSource;
                    active true;
                    velocityLimiterSourceCoeffs
                    {
                        Ulimit 60.0;
                        selectionMode all;
                        velocityDamp false;
                        velocityClip true;
                        verbose true;
                    }
                }
            }
        }
        fields
        {
            U
            {
                initialisation
                {
                    type fixedValue;
                    value uniform ( 0.0 0.0 0.0 );
                }
            }
            p
            {
                initialisation
                {
                    type fixedValue;
                    value uniform 0.0;
                }
            }
            k
            {
                initialisation
                {
                    type fixedValue;
                    value uniform 0.01;
                }
            }
            omega
            {
                initialisation
                {
                    type fixedValue;
                    value uniform 100.0;
                }
            }
        }
        boundaryConditions
        {
            Case
            {
                U
                {
                    type wallVelocity;
                    value uniform ( 0.0 0.0 0.0 );
                }
                p
                {
                    type fixedFluxPressure;
                    value uniform 0.0;
                }
                k
                {
                    type kqRWallFunction;
                    value uniform 1e-20;
                }
                omega
                {
                    type knopOmegaWallFunction;
                    value uniform 1;
                }
                nut
                {
                    type nutUTabulatedWallFunction;
                    value uniform 0.001;
                }
                pointDisplacement
                {
                    type fixedValue;
                    value uniform ( 0.0 0.0 0.0 );
                }
            }
            inlet
            {
                U
                {
                    type pressureVelocity;
                    value uniform ( 0.0 0.0 0.0 );
                }
                p
                {
                    type totalPressure;
                    value uniform 0.0;
                    p0 uniform 0.0;
                    gamma 1.0;
                    addStaticHead false;
                }
                k
                {
                    type turbulentIntensityKineticEnergyInlet;
                    value uniform 0.1;
                    intensity 0.03;
                }
                omega
                {
                    type turbulentMixingLengthFrequencyInlet;
                    value uniform 0.01;
                    mixingLength 0.002;
                }
                nut
                {
                    type calculated;
                    value uniform 0.001;
                }
                pointDisplacement
                {
                    type fixedValue;
                    value uniform ( 0.0 0.0 0.0 );
                }
            }
            outlet
            {
                U
                {
                    type pressureVelocity;
                    value uniform ( 0.0 0.0 0.0 );
                }
                p
                {
                    type fixedValue;
                    value uniform 125000.0;
                }
                k
                {
                    type turbulentIntensityKineticEnergyInlet;
                    intensity 0.05;
                    value uniform 0.1;
                }
                omega
                {
                    type turbulentMixingLengthFrequencyInlet;
                    mixingLength 0.01;
                    k k;
                    value uniform 0.01;
                }
                nut
                {
                    type calculated;
                    value uniform 0.001;
                }
                pointDisplacement
                {
                    type fixedValue;
                    value uniform ( 0.0 0.0 0.0 );
                }
            }
            Gears
            {
                U
                {
                    type movingWallVelocity;
                    value uniform ( 0.0 0.0 0.0 );
                }
                p
                {
                    type fixedFluxPressure;
                    value uniform 0.0;
                }
                k
                {
                    type kqRWallFunction;
                    value uniform 1e-20;
                }
                omega
                {
                    type knopOmegaWallFunction;
                    value uniform 1;
                }
                nut
                {
                    type nutUTabulatedWallFunction;
                    value uniform 0.001;
                }
                pointDisplacement
                {
                    type fixedValue;
                    value uniform ( 0.0 0.0 0.0 );
                }
            }
        }
    }
}


// ************************************************************************* //
