/*--------------------------------*- C++ -*----------------------------------*\
|       o        |                                                            |
|    o     o     |  HELYX (R) : Open-source CFD for Enterprise                |
|   o   O   o    |  Version : 4.4.0                                           |
|    o     o     |  ENGYS Ltd. <http://engys.com/>                            |
|       o        |                                                            |
\*---------------------------------------------------------------------------*/
FoamFile
{
    version     2.0;
    format      ascii;
    class       dictionary;
    object      extrudeToRegionMeshDict;
}
// * * * * * * * * * * * * * * * * * * * * * * * * * * * * * * * * * * * * * //

region          filmRegion;

faceZones       (coupledWall);

oneD            false;

sampleMode      nearestPatchFace;

extrudeModel    linearNormal;

nLayers         1;

expansionRatio  1;

adaptMesh       false; // leave primary region patches intact

linearNormalCoeffs
{
    thickness       0.001;
}

// * * * * * * * * * * * * * * * * * * * * * * * * * * * * * * * * * * * * * //
