/*--------------------------------*- C++ -*----------------------------------*\
|       o        |                                                            |
|    o     o     |  HELYX (R) : Open-source CFD for Enterprise                |
|   o   O   o    |  Version : 4.4.0                                           |
|    o     o     |  ENGYS Ltd. <http://engys.com/>                            |
|       o        |                                                            |
\*---------------------------------------------------------------------------*/
FoamFile
{
    version     2.0;
    format      ascii;
    class       dictionary;
    object      topoSetDict;
}

// * * * * * * * * * * * * * * * * * * * * * * * * * * * * * * * * * * * * * //

actions
(
    {
        name    f0;
        type    faceSet;
        action  new;
        source  boxToFace;
        sourceInfo
        {
            box (-0.1 -2.1 -0.1)(0.201 2.51 0.01);
        }
    }


    {
        name    coupledWall;
        type    faceSet;
        action  new;
        source  patchToFace;
        sourceInfo
        {
            name   coupledWallTmp;
        }
    }

    {
        name    coupledWall;
        type    faceZoneSet;
        action  new;
        source  setToFaceZone;
        sourceInfo
        {
            faceSet   coupledWall;
        }
    }
);

// ************************************************************************* //
