/*--------------------------------*- C++ -*----------------------------------*\
|       o        |                                                            |
|    o     o     |  HELYX (R) : Open-source CFD for Enterprise                |
|   o   O   o    |  Version : 4.4.0                                           |
|    o     o     |  ENGYS Ltd. <http://engys.com/>                            |
|       o        |                                                            |
\*---------------------------------------------------------------------------*/
FoamFile
{
    version     2.0;
    format      ascii;
    class       dictionary;
    object      blockMeshDict;
}
// * * * * * * * * * * * * * * * * * * * * * * * * * * * * * * * * * * * * * //

convertToMeters 1;

vertices
(
    ( 0.0 0.0 0.0 )
    ( 1.0 0.0 0.0 )
    ( 1.0 0.1 0.0 )
    ( 0.0 0.1 0.0 )
    ( 0.0 0.0 0.1 )
    ( 1.0 0.0 0.1 )
    ( 1.0 0.1 0.1 )
    ( 0.0 0.1 0.1 )
);

blocks
(
    hex (0 1 2 3 4 5 6 7) (10 1 1) simpleGrading (1 1 1)
);

edges
();

boundary
(
    inlet
    {
        type inlet;
        faces
        (
            (0 4 7 3)
        );
    }
    outlet
    {
        type outlet;
        faces
        (
            (1 2 6 5)
        );
    }
    frontAndBack
    {
        type empty;
        faces
        (
            (0 1 5 4)
            (3 7 6 2)
            (0 3 2 1)
            (4 5 6 7)
        );
    }
);

mergePatchPairs
();


// ************************************************************************* //
