/*--------------------------------*- C++ -*----------------------------------*\
|       o        |                                                            |
|    o     o     |  HELYX (R) : Open-source CFD for Enterprise                |
|   o   O   o    |  Version : 4.4.0                                           |
|    o     o     |  ENGYS Ltd. <http://engys.com/>                            |
|       o        |                                                            |
\*---------------------------------------------------------------------------*/
FoamFile
{
    version     2.0;
    format      ascii;
    class       dictionary;
    object      blockMeshDict;
}
// * * * * * * * * * * * * * * * * * * * * * * * * * * * * * * * * * * * * * //

convertToMeters 1;

vertices
(
    ( -300  -1   0 ) // 0
    (  700  -1   0 ) // 1
    (  700   1   0 ) // 2
    ( -300   1   0 ) // 3
    ( -300  -1   500 ) // 4
    (  700  -1   500 ) // 5
    (  700   1   500 ) // 6
    ( -300   1   500 ) // 7
);

blocks
(
    hex (0 1 2 3 4 5 6 7) (500 1 200) simpleGrading (1 1 20)
);

edges ();

boundary
(
    outlet
    {
        type patch;
        faces
        (
            (1 5 6 2)
        );
    }
    north
    {
        type empty;
        faces
        (
            (3 7 6 2)
        );
    }
    south
    {
        type empty;
        faces
        (
            (1 5 4 0)
        );
    }
    inlet
    {
        type patch;
        faces
        (
            (0 4 7 3)
        );
    }
    ground
    {
        type wall;
        faces
        (
                     (0 3 2 1)
        );
    }
    top
    {
        type patch;
        faces
        (
          (4 5 6 7)
        );
    }
);

mergePatchPairs ();


// ************************************************************************* //
