/*--------------------------------*- C++ -*----------------------------------*\
|       o        |                                                            |
|    o     o     |  HELYX (R) : Open-source CFD for Enterprise                |
|   o   O   o    |  Version : 4.4.0                                           |
|    o     o     |  ENGYS Ltd. <http://engys.com/>                            |
|       o        |                                                            |
\*---------------------------------------------------------------------------*/
FoamFile
{
    version     2.0;
    format      ascii;
    class       dictionary;
    object      testDict;
}
// * * * * * * * * * * * * * * * * * * * * * * * * * * * * * * * * * * * * * //

// values from outer-scope
begIter     0;
endIter     200;

writeInterval   #codeStream
{
    // values from inner-scope
    nDumps      5;

    codeInclude
    #{
        #include "cfdTools/general/include/fvCFD.H"
    #};

    codeOptions
    #{
        -I$(HELYX_PROJECT_DIR)/src/finiteVolume
        -I$(HELYX_PROJECT_DIR)/src/meshTools
    #};

    localCode
    #{
        static int someCode()
        {
            Info<<"called someCode\n";
            return 10;
        }
    #};

    code
    #{
        label interval = ($endIter - $begIter);
        // label nDumps = $nDumps;
        label nDumps = someCode();
        os  << (interval / nDumps);
    #};
};

// play with cleanup
#remove begIter

// * * * * * * * * * * * * * * * * * * * * * * * * * * * * * * * * * * * * * //
