/*--------------------------------*- C++ -*----------------------------------*\
|       o        |                                                            |
|    o     o     |  HELYX (R) : Open-source CFD for Enterprise                |
|   o   O   o    |  Version : 4.4.0                                           |
|    o     o     |  ENGYS Ltd. <http://engys.com/>                            |
|       o        |                                                            |
\*---------------------------------------------------------------------------*/
FoamFile
{
    version     2.0;
    format      ascii;
    class       dictionary;
    object      controlDict;
}
// * * * * * * * * * * * * * * * * * * * * * * * * * * * * * * * * * * * * * //

application     helyxSolve;

startFrom       latestTime;

startTime       0;

stopAt          endTime;

endTime         2000;

deltaT          1;

writeControl    timeStep;

writeInterval   100;

purgeWrite      0;

writeFormat     ascii;

writePrecision  10;

writeCompression uncompressed;

timeFormat      general;

timePrecision   6;

graphFormat     raw;

runTimeModifiable yes;

libs            1 ( "" );

functions
{
    RR
    {
        type            specieReactionRates;
        writeRRFields   ( ( CH4 0 ) );
        writeQdotFields ( 0 );
        region          pelletFluid;
        writeControl    onEnd;
    }
    moleFractions
    {
        type            moleFractions;
        species         ( CH4 CO2 H2 H2O );
        regions         ( default pelletFluid );
        writeControl    onEnd;
    }
    VR
    {
        functionObjectLibs ( "libreport.so" );
        logToFile       yes;
        fields          ( T );
        executeControl  onEnd;
        type            volumeReport;
        writeControl    onEnd;
        outputFileFormat tsv;
    }
    wallHeatFlux
    {
        type            wallHeatFlux;
        kappaMethod     fluidThermo;
        region          default;
        libs            ( "libfieldFunctionObjects.so" );
    }
    samples
    {
        type            sets;
        libs            ( "libsampling.so" );
        regions         ( default pelletFluid );
        writeControl    writeTime;
        setFormat       raw;
        surfaceFormat   vtk;
        interpolationScheme cellPoint;
        fields          ( X_CH4 X_CO2 X_H2 X_H2O T U p );
        sets            
        (
            yCenterLine1
            {
                type            uniform;
                axis            x;
                start           ( 0 0.2 0.005 );
                end             ( 3 0.2 0.005 );
                nPoints         600;
            }

            yCenterLine2
            {
                type            uniform;
                axis            x;
                start           ( 3 0.2 0.005 );
                end             ( 0 0.2 0.005 );
                nPoints         600;
            }

            xCenterLine1
            {
                type            uniform;
                axis            y;
                start           ( 1 0 0.005 );
                end             ( 1 0.4 0.005 );
                nPoints         100;
            }

            xCenterLine2
            {
                type            uniform;
                axis            y;
                start           ( 1 0.4 0.005 );
                end             ( 1 0 0.005 );
                nPoints         100;
            }

        )
;
    }
}


// ************************************************************************* //
