/*--------------------------------*- C++ -*----------------------------------*\
|       o        |                                                            |
|    o     o     |  HELYX (R) : Open-source CFD for Enterprise                |
|   o   O   o    |  Version : 4.4.0                                           |
|    o     o     |  ENGYS Ltd. <http://engys.com/>                            |
|       o        |                                                            |
\*---------------------------------------------------------------------------*/
FoamFile
{
    version     2.0;
    format      ascii;
    class       dictionary;
    object      extrudeMeshDict;
}
// * * * * * * * * * * * * * * * * * * * * * * * * * * * * * * * * * * * * * //

constructFrom patch;

sourceCase ".";
sourcePatches ( ffmaxz );

exposedPatchName    ffminz;

flipNormals         false;

extrudeModel        plane;

nLayers             1;

thickness           0.01;

expansionRatio      1.0;

mergeFaces          false;


// ************************************************************************* //
