/*--------------------------------*- C++ -*----------------------------------*\
|       o        |                                                            |
|    o     o     |  HELYX (R) : Open-source CFD for Enterprise                |
|   o   O   o    |  Version : 4.4.0                                           |
|    o     o     |  ENGYS Ltd. <http://engys.com/>                            |
|       o        |                                                            |
\*---------------------------------------------------------------------------*/
FoamFile
{
    version     2.0;
    format      ascii;
    class       dictionary;
    object      setFieldsDict;
}
// * * * * * * * * * * * * * * * * * * * * * * * * * * * * * * * * * * * * * //

defaultFieldValues
(
    volScalarFieldValue alpha.water 0
);

regions
(
    boxToCell
    {
        box ( -100 -100 -100 ) ( 100 100 0.5368 );
        fieldValues ( volScalarFieldValue alpha.water 1 );
    }

    boxToCell
    {
        box ( 0.7 0.8 -100 ) ( 100 100 0.65 );
        fieldValues ( volScalarFieldValue alpha.water 1 );
    }
);

// ************************************************************************* //
