/*--------------------------------*- C++ -*----------------------------------*\
|       o        |                                                            |
|    o     o     |  HELYX (R) : Open-source CFD for Enterprise                |
|   o   O   o    |  Version : 4.4.0                                           |
|    o     o     |  ENGYS Ltd. <http://engys.com/>                            |
|       o        |                                                            |
\*---------------------------------------------------------------------------*/
FoamFile
{
    version     2.0;
    format      ascii;
    class       dictionary;
    object      collapseDict;
}
// * * * * * * * * * * * * * * * * * * * * * * * * * * * * * * * * * * * * * //

collapseEdgesCoeffs
{
    // Edges shorter than this absolute value will be merged
    minimumEdgeLength   2e-7;

    // The maximum angle between two edges that share a point attached to
    // no other edges
    maximumMergeAngle   5;
}


// ************************************************************************* //
