/*--------------------------------*- C++ -*----------------------------------*\
|       o        |                                                            |
|    o     o     |  HELYX (R) : Open-source CFD for Enterprise                |
|   o   O   o    |  Version : 4.4.0                                           |
|    o     o     |  ENGYS Ltd. <http://engys.com/>                            |
|       o        |                                                            |
\*---------------------------------------------------------------------------*/
FoamFile
{
    version     2.0;
    format      ascii;
    class       dictionary;
    location    "templates";
    object      kOmega;
}
// * * * * * * * * * * * * * * * * * * * * * * * * * * * * * * * * * * * * * //

fluidFields
{
    k
    {
        type        scalar;
        dimensions  [0 2 -2 0 0];
    }
    omega
    {
        type        scalar;
        dimensions  [0 0 -1 0 0];
    }
    nut
    {
        type        scalar;
        dimensions  [0 2 -1 0 0];
    }
}


incompressibleFields
{}


compressibleFields
{
    alphat
    {
        type        scalar;
        dimensions  [1 -1 -1 0 0];
    }
}


// ************************************************************************* //
