/*--------------------------------*- C++ -*----------------------------------*\
|       o        |                                                            |
|    o     o     |  HELYX (R) : Open-source CFD for Enterprise                |
|   o   O   o    |  Version : 4.4.0                                           |
|    o     o     |  ENGYS Ltd. <http://engys.com/>                            |
|       o        |                                                            |
\*---------------------------------------------------------------------------*/
FoamFile
{
    version     2.0;
    format      binary;
    class       dictionary;
    arch        "LSB;label=32;scalar=64";
    object      controlDict;
}
// * * * * * * * * * * * * * * * * * * * * * * * * * * * * * * * * * * * * * //

application     helyxSolve;

startFrom       startTime;

startTime       0;

stopAt          endTime;

endTime         0.7;

deltaT          0.0001;

writeControl    timeStep;

writeInterval   1000;

purgeWrite      0;

writeFormat     binary;

writePrecision  6;

writeCompression off;

timeFormat      general;

timePrecision   6;

graphFormat     raw;

runTimeModifiable true;

libs            3 ( "libOpenFOAM.so" "libfieldFunctionObjects.so" "" );

adjustTimeStep  no;

maxCo           1;

maxDeltaT       1;

functions
{
    VR
    {
        functionObjectLibs ( "libreport.so" );
        logToFile       yes;
        fields          ( U p );
        executeControl  onEnd;
        type            volumeReport;
        regions         ( region0 );
        writeControl    onEnd;
        outputFileFormat tsv;
    }
    cuttingPlane
    {
        functionObjectLibs ( "libsampling.so" );
        fields          ( p U );
        interpolationScheme cellPoint;
        surfaceFormat   vtk;
        surfaces        
        (
            yNormal
            {
                type            cuttingPlane;
                planeType       pointAndNormal;
                pointAndNormalDict
                {
                    point           ( 0 0 0 );
                    normal          ( 0 1 0 );
                }
                interpolate     true;
            }

        )
;
        writeControl    writeTime;
        type            surfaces;
        libs            ( "libsampling.so" );
    }
    streamLines
    {
        type            streamLine;
        writeControl    writeTime;
        setFormat       vtk;
        U               U;
        trackForward    true;
        fields          ( p U );
        lifeTime        10000;
        nSubCycle       5;
        cloud           particleTracks;
        seedSampleSet
        {
            type            uniform;
            axis            x;
            start           ( -1.001 1e-07 0.0011 );
            end             ( -1.001 1e-07 1.0011 );
            nPoints         20;
        }
    }
    forceCoeffs1
    {
        type            forceCoeffs;
        libs            ( "libforces.so" );
        writeControl    timeStep;
        timeInterval    1;
        log             yes;
        patches         ( motorBikeGroup );
        rho             rhoInf;
        rhoInf          1.225;
        liftDir         ( 0 0 1 );
        dragDir         ( 1 0 0 );
        CofR            ( 0.72 0 0 );
        pitchAxis       ( 0 1 0 );
        magUInf         20;
        lRef            1.42;
        Aref            0.75;
        outputFileFormat tsv;
    }
    fieldBlending
    {
        functionObjectLibs ( "libfieldFunctionObjects.so" );
        executeControl  timeStep;
        writeControl    writeTime;
        type            fieldBlendingFactor;
        blendingSources 
        (
            zonalDES
            {
                type            zonalDES;
                CDES            1;
                minValue        0;
                maxValue        1;
                minCoeff        0;
                maxCoeff        1;
                functionType    cubic;
                write           false;
            }

        )
;
        fieldBlending   
        (
            U
            {
                stabilise       10;
                blendingSources 
                (
                    cfl1
                    {
                        type            cfl;
                        minValue        2;
                        maxValue        4;
                        minCoeff        1;
                        maxCoeff        0;
                        functionType    cubic;
                        phi             phi;
                        rho             rho;
                        write           false;
                    }

                )
;
            }

        )
;
        regions         1 ( region0 );
    }
}


// ************************************************************************* //
