/*--------------------------------*- C++ -*----------------------------------*\
|       o        |                                                            |
|    o     o     |  HELYX (R) : Open-source CFD for Enterprise                |
|   o   O   o    |  Version : 4.4.0                                           |
|    o     o     |  ENGYS Ltd. <http://engys.com/>                            |
|       o        |                                                            |
\*---------------------------------------------------------------------------*/
FoamFile
{
    version     2.0;
    format      ascii;
    class       dictionary;
    object      blockMeshDict;
}
// * * * * * * * * * * * * * * * * * * * * * * * * * * * * * * * * * * * * * //

convertToMeters 0.001;

vertices
(
    (-150 0 -1)            (-150 25 -1) (-150 50 -1)
    ( -50 0 -1) (-50 0 -1) ( -50 25 -1) ( -50 50 -1)
    (   0 0 -1)            (   0 25 -1) (   0 50 -1)

    (   0 0 -1)            (   0 25 -1) (   0 50 -1)
    ( 150 0 -1)            ( 150 25 -1) ( 150 50 -1)

    (-150 0  1)            (-150 25  1) (-150 50  1)
    ( -50 0  1) (-50 0  1) ( -50 25  1) ( -50 50  1)
    (   0 0  1)            (   0 25  1) (   0 50  1)

    (   0 0  1)            (   0 25  1) (   0 50  1)
    ( 150 0  1)            ( 150 25  1) ( 150 50  1)
);

blocks
(
    hex (0 3 5 1 16 19 21 17) (24 10 1) simpleGrading (1 1 1)
    hex (1 5 6 2 17 21 22 18) (24 10 1) simpleGrading (1 1 1)
    hex (4 7 8 5 20 23 24 21) (12 10 1) simpleGrading (1 1 1)
    hex (5 8 9 6 21 24 25 22) (12 10 1) simpleGrading (1 1 1)
    hex (10 13 14 11 26 29 30 27) (36 12 1) simpleGrading (1 1 1)
    hex (11 14 15 12 27 30 31 28) (36 12 1) simpleGrading (1 1 1)
);

xmax 1.645656219842;    // xmax = (50/4)/sin(30/2) - (50/4)/tan(30/2)
mx  -1.645656219842;

edges
(
    arc 7 8 ($xmax 12.5 -1)
    arc 23 24 ($xmax 12.5 1)
    arc 8 9 ($mx 37.5 -1)
    arc 24 25 ($mx 37.5 1)

    arc 10 11 ($xmax 12.5 -1)
    arc 26 27 ($xmax 12.5 1)
    arc 11 12 ($mx 37.5 -1)
    arc 27 28 ($mx 37.5 1)
);

defaultPatch
{
    name frontAndBack;
    type empty;
}

boundary
(
    inlet
    {
        type patch;
        faces
        (
            (0 1 17 16)
            (1 2 18 17)
        );
    }

    outlet
    {
        type patch;
        faces
        (
            (13 14 30 29)
            (14 15 31 30)
        );
    }

    walls
    {
        type wall;
        faces
        (
            (0 3 19 16)
            (3 5 21 19)
            (5 4 20 21)
            (4 7 23 20)
            (10 13 29 26)

            (2 6 18 22)
            (6 9 25 22)
            (12 15 31 28)
        );
    }

    interfaceUp
    {
        type     patch;
        faces
        (
            (7 8 24 23)
            (8 9 25 24)
        );
    }

    interfaceDown
    {
        type     patch;
        faces
        (
            (10 11 27 26)
            (11 12 28 27)
        );
    }
);


// ************************************************************************* //
