/*--------------------------------*- C++ -*----------------------------------*\
|       o        |                                                            |
|    o     o     |  HELYX (R) : Open-source CFD for Enterprise                |
|   o   O   o    |  Version : 4.4.0                                           |
|    o     o     |  ENGYS Ltd. <http://engys.com/>                            |
|       o        |                                                            |
\*---------------------------------------------------------------------------*/
FoamFile
{
    version     2.0;
    format      ascii;
    class       dictionary;
    object      controlDict;
}
// * * * * * * * * * * * * * * * * * * * * * * * * * * * * * * * * * * * * * //

application     pimpleFoam;

startFrom       startTime;

startTime       0;

stopAt          endTime;

endTime         2;

deltaT          0.005;

writeControl    adjustableRunTime;

writeInterval   0.2;

purgeWrite      0;

writeFormat     ascii;

writePrecision  12;

writeCompression uncompressed;

timeFormat      general;

timePrecision   6;

graphFormat     raw;

runTimeModifiable yes;

libs            1 ( "" );

adjustTimeStep  no;

maxCo           5;

maxDeltaT       1;

meshChangers    true;

DebugSwitches
{
    nonConformal    1;
}

functions
{
    VR
    {
        functionObjectLibs ( "libreport.so" );
        logToFile       yes;
        fields          ( U p );
        executeControl  onEnd;
        type            volumeReport;
        writeControl    onEnd;
        outputFileFormat tsv;
    }
    inletFlowRate
    {
        type            surfaceFieldValue;
        libs            ( "libfieldFunctionObjects.so" );
        writeControl    timeStep;
        writeInterval   1;
        writeFields     false;
        log             false;
        regionType      patch;
        name            inlet;
        fields          ( phi );
        operation       sum;
    }
    outletFlowRate
    {
        type            surfaceFieldValue;
        libs            ( "libfieldFunctionObjects.so" );
        writeControl    timeStep;
        writeInterval   1;
        writeFields     false;
        log             false;
        regionType      patch;
        name            outlet;
        fields          ( phi );
        operation       sum;
    }
}


// ************************************************************************* //
