/*--------------------------------*- C++ -*----------------------------------*\
|       o        |                                                            |
|    o     o     |  HELYX (R) : Open-source CFD for Enterprise                |
|   o   O   o    |  Version : 4.4.0                                           |
|    o     o     |  ENGYS Ltd. <http://engys.com/>                            |
|       o        |                                                            |
\*---------------------------------------------------------------------------*/
FoamFile
{
    version     2.0;
    format      ascii;
    class       dictionary;
    object      fvSolution;
}
// * * * * * * * * * * * * * * * * * * * * * * * * * * * * * * * * * * * * * //

solvers
{
    p_rgh
    {
        solver          PCG;
        preconditioner  DIC;
        tolerance       1e-08;
        relTol          0.01;
    }
    "(U|T|k|epsilon)"
    {
        solver          PBiCGStab;
        preconditioner  DILU;
        tolerance       1e-07;
        relTol          0.1;
    }
    cellDisplacement
    {
        $p_rgh;
        relTol          0;
    }
}

SIMPLE
{
    nNonOrthogonalCorrectors 2;
    pRefCell        0;
    pRefValue       0;
    residualControl
    {
        p_rgh           1e-2;
        U               1e-4;
        T               1e-3;
        "(k|epsilon|omega)" 1e-3;
    }
}

relaxationFactors
{
    fields
    {
        p_rgh           0.7;
    }
    equations
    {
        U               0.2;
        T               0.5;
        "(k|epsilon)"   0.7;
    }
}


// ************************************************************************* //
