/*--------------------------------*- C++ -*----------------------------------*\
|       o        |                                                            |
|    o     o     |  HELYX (R) : Open-source CFD for Enterprise                |
|   o   O   o    |  Version : 4.4.0                                           |
|    o     o     |  ENGYS Ltd. <http://engys.com/>                            |
|       o        |                                                            |
\*---------------------------------------------------------------------------*/
FoamFile
{
    version     2.0;
    format      ascii;
    class       dictionary;
    object      controlDict;
}
// * * * * * * * * * * * * * * * * * * * * * * * * * * * * * * * * * * * * * //

application     helyxSolve;

startFrom       startTime;

startTime       0;

stopAt          endTime;

endTime         500;

deltaT          1;

writeControl    timeStep;

writeInterval   100;

purgeWrite      0;

writeFormat     ascii;

writePrecision  10;

writeCompression uncompressed;

timeFormat      general;

timePrecision   6;

graphFormat     raw;

runTimeModifiable yes;

libs            1 ( "" );

functions
{
    VR
    {
        functionObjectLibs ( "libreport.so" );
        logToFile       yes;
        fields          ( T );
        executeControl  onEnd;
        type            volumeReport;
        regions         ( disk );
        writeControl    onEnd;
        outputFileFormat tsv;
    }
    wallHeatFlux-fluid
    {
        type            wallHeatFlux;
        kappaMethod     fluidThermo;
        region          default;
        libs            ( "libfieldFunctionObjects.so" );
    }
    wallHeatFlux-disk
    {
        type            wallHeatFlux;
        kappaMethod     solidThermo;
        region          disk;
        libs            ( "libfieldFunctionObjects.so" );
    }
    wallHeatFlux-pad1
    {
        type            wallHeatFlux;
        kappaMethod     solidThermo;
        region          pad1;
        libs            ( "libfieldFunctionObjects.so" );
    }
    wallHeatFlux-pad2
    {
        type            wallHeatFlux;
        kappaMethod     solidThermo;
        region          pad2;
        libs            ( "libfieldFunctionObjects.so" );
    }
}


// ************************************************************************* //
