/*--------------------------------*- C++ -*----------------------------------*\
|       o        |                                                            |
|    o     o     |  HELYX (R) : Open-source CFD for Enterprise                |
|   o   O   o    |  Version : 4.4.0                                           |
|    o     o     |  ENGYS Ltd. <http://engys.com/>                            |
|       o        |                                                            |
\*---------------------------------------------------------------------------*/
FoamFile
{
    version     2.0;
    format      ascii;
    class       dictionary;
    location    "templates";
    object      wallOptions;
}
// * * * * * * * * * * * * * * * * * * * * * * * * * * * * * * * * * * * * * //

wallFunction
{
    highReynolds
    {
        alphat
        {
            type        alphatWallFunction;
            value       ${:VALUE.alphat};
        }
    }
    lowReynolds
    {
        alphat
        {
            type        fixedValue;
            value       uniform 0;
        }
    }
}


heatTransfer
{
    adiabatic
    {
        T
        {
            type        zeroGradient;
        }
    }
    fixedTemperature
    {
        T
        {
            type        fixedValue;
            value       ${:VALUE.T};
        }
    }
    thermalCoupled
    {
        T
        {
            type        turbulentTemperatureCoupledBaffleMixed;
            value       ${:VALUE.T};
            Tnbr        T;
            kappaMethod fluidThermo;
            kappa       none;
        }
    }
}


// ************************************************************************* //
