/*--------------------------------*- C++ -*----------------------------------*\
|       o        |                                                            |
|    o     o     |  HELYX (R) : Open-source CFD for Enterprise                |
|   o   O   o    |  Version : 4.4.0                                           |
|    o     o     |  ENGYS Ltd. <http://engys.com/>                            |
|       o        |                                                            |
\*---------------------------------------------------------------------------*/
FoamFile
{
    version     2.0;
    format      ascii;
    class       dictionary;
    object      helyxHexMeshDict;
}
// * * * * * * * * * * * * * * * * * * * * * * * * * * * * * * * * * * * * * //

#includeEtc "caseDicts/mesh/generation/helyxHexMeshDict.cfg"

// Which of the steps to run
castellatedMesh true;
snap            true;
addLayers       false;

autoBlockMesh   true;
blockData       ( 0.01 0 );

crackDetection  false;

// Geometry. Definition of all surfaces.
geometry
{
    AMI.obj
    {
        type        triSurfaceMesh;
        name        nonCouple;
    }

    innerInlet.obj
    {
        type        triSurfaceMesh;
        name        innerInlet;
    }

    outerInlet.obj
    {
        type        triSurfaceMesh;
        name        outerInlet;
    }

    innerOutlet.obj
    {
        type        triSurfaceMesh;
        name        innerOutlet;
    }

    outerOutlet.obj
    {
        type        triSurfaceMesh;
        name        outerOutlet;
    }

    rotorBlades.obj
    {
        type        triSurfaceMesh;
        name        rotorBlades;
    }

    shaft.obj
    {
        type        triSurfaceMesh;
        name        shaft;
    }

    statorBlades.obj
    {
        type        triSurfaceMesh;
        name        statorBlades;
    }

    wall.obj
    {
        type        triSurfaceMesh;
        name        walls;
    }
};

// Settings for the castellatedMesh generation
castellatedMeshControls
{
    features
    ();

    refinementSurfaces
    {
        nonCouple
        {
            level             (2 2);
            faceZone          nonCouple;
            cellZone          rotating;
            faceType          boundary;
            cellZoneInside    inside;
        }

        innerInlet
        {
            level       (1 1);
            patchInfo
            {
                type inlet;
                inGroups (inlet);
            }
        }

        outerInlet
        {
            level       (1 1);
            patchInfo
            {
                type inlet;
                inGroups (inlet);
            }
        }

        innerOutlet
        {
            level       (1 1);
            patchInfo
            {
                type outlet;
                inGroups (outlet);
            }
        }

        outerOutlet
        {
            level       (1 1);
            patchInfo
            {
                type outlet;
                inGroups (outlet);
            }
        }

        rotorBlades
        {
            level       (2 2);
            patchInfo
            {
                type wall;
                inGroups (movingWalls);
            }
            faceZone rotorBlades;
            faceType baffle;
            allowFreeStandingZoneFaces true;
        }

        shaft
        {
            level       (1 1);
            patchInfo
            {
                type wall;
                inGroups (movingWalls);
            }
        }

        statorBlades
        {
            level       (2 2);
            patchInfo
            {
                type wall;
                inGroups (staticWalls);
            }
            faceZone statorBlades;
            faceType baffle;
            allowFreeStandingZoneFaces true;
        }

        walls
        {
            level       (1 1);
            patchInfo
            {
                type wall;
                inGroups (staticWalls);
            }
        }
    }

    refinementRegions
    {}

    locationInMesh (0.035 0.043 0.017);
}

// Settings for the snapping
snapControls
{
    featureEdges
    {}
}

// Settings for the layer addition
addLayersControls
{
    layers
    {}
}


// ************************************************************************* //
