/*--------------------------------*- C++ -*----------------------------------*\
|       o        |                                                            |
|    o     o     |  HELYX (R) : Open-source CFD for Enterprise                |
|   o   O   o    |  Version : 4.4.0                                           |
|    o     o     |  ENGYS Ltd. <http://engys.com/>                            |
|       o        |                                                            |
\*---------------------------------------------------------------------------*/
FoamFile
{
    version     2.0;
    format      ascii;
    class       dictionary;
    object      topoSetDict;
}
// * * * * * * * * * * * * * * * * * * * * * * * * * * * * * * * * * * * * * //

actions
(
    // solid
    {
        name    trees;
        type    cellSet;
        action  new;
        source  boxToCell;
        sourceInfo
        {
            box     (5  15.5 0)(10 24.5 2);
        }
    }

    {
        name    trees;
        type    cellZoneSet;
        action  new;
        source  setToCellZone;
        sourceInfo
        {
            set     trees;           // cellSet
        }
    }
);


// ************************************************************************* //
