/*--------------------------------*- C++ -*----------------------------------*\
|       o        |                                                            |
|    o     o     |  HELYX (R) : Open-source CFD for Enterprise                |
|   o   O   o    |  Version : 4.4.0                                           |
|    o     o     |  ENGYS Ltd. <http://engys.com/>                            |
|       o        |                                                            |
\*---------------------------------------------------------------------------*/
FoamFile
{
    version     2.0;
    format      ascii;
    class       dictionary;
    location    "system";
    object      controlDict;
}
// * * * * * * * * * * * * * * * * * * * * * * * * * * * * * * * * * * * * * //

application     cavitatingFoam;

startFrom       latestTime;

startTime       0;

stopAt          endTime;

endTime         0.002;

deltaT          1e-08;

writeControl    adjustableRunTime;

writeInterval   0.0001;

purgeWrite      0;

writeFormat     ascii;

writePrecision  6;

writeCompression off;

timeFormat      general;

runTimeModifiable yes;

adjustTimeStep  on;

maxCo           0.5;

maxAcousticCo   50;


// ************************************************************************* //
