/*--------------------------------*- C++ -*----------------------------------*\
|       o        |                                                            |
|    o     o     |  HELYX (R) : Open-source CFD for Enterprise                |
|   o   O   o    |  Version : 4.4.0                                           |
|    o     o     |  ENGYS Ltd. <http://engys.com/>                            |
|       o        |                                                            |
\*---------------------------------------------------------------------------*/
FoamFile
{
    version     2.0;
    format      ascii;
    class       dictionary;
    location    "templates";
    object      inletOptions;
}
// * * * * * * * * * * * * * * * * * * * * * * * * * * * * * * * * * * * * * //

flowSpecification
{
    fixedPressure
    {
        U
        {
            type        pressureInletVelocity;
            value       ${:VALUE.U};
        }
        p
        {
            type        fixedValue;
            value       ${:VALUE.p};
        }
    }
    fixedVelocity
    {
        U
        {
            type        fixedValue;
            value       ${:VALUE.U};
        }
        p
        {
            type        zeroGradient;
        }
    }
}

// ************************************************************************* //
