/*--------------------------------*- C++ -*----------------------------------*\
|       o        |                                                            |
|    o     o     |  HELYX (R) : Open-source CFD for Enterprise                |
|   o   O   o    |  Version : 4.4.0                                           |
|    o     o     |  ENGYS Ltd. <http://engys.com/>                            |
|       o        |                                                            |
\*---------------------------------------------------------------------------*/
FoamFile
{
    version     2.0;
    format      ascii;
    class       dictionary;
    location    "templates";
    object      wallOptions;
}
// * * * * * * * * * * * * * * * * * * * * * * * * * * * * * * * * * * * * * //

wallFunction
{
    highReynolds
    {
        nut
        {
            type        nutkWallFunction;
            value       ${:VALUE.nut};
        }
        k
        {
            type        kqRWallFunction;
            value       ${:VALUE.k};
        }
        epsilon
        {
            type        epsilonWallFunction;
            value       ${:VALUE.epsilon};
        }
        omega
        {
            type        omegaWallFunction;
            value       ${:VALUE.omega};
        }
    }
    lowReynolds
    {
        nut
        {
            type        fixedValue;
            value       uniform 0;
        }
        k
        {
            type        fixedValue;
            value       uniform 0;
        }
        epsilon
        {
            type        fixedValue;
            value       uniform 1e-8;
        }
        omega
        {
            type        fixedValue;
            value       uniform 1e-8;
        }
    }
}


motion
{
    stationary
    {
        U
        {
            type        fixedValue;
            value       uniform (0 0 0);
        }
    }
    moving
    {
        U
        {
            type        fixedValue;
            value       ${:VALUE.U};
        }
    }
    movingMesh
    {
        U
        {
            type        movingWallVelocity;
            value       ${:VALUE.U};
        }
    }
}


// ************************************************************************* //
