/*--------------------------------*- C++ -*----------------------------------*\
|       o        |                                                            |
|    o     o     |  HELYX (R) : Open-source CFD for Enterprise                |
|   o   O   o    |  Version : 4.4.0                                           |
|    o     o     |  ENGYS Ltd. <http://engys.com/>                            |
|       o        |                                                            |
\*---------------------------------------------------------------------------*/
FoamFile
{
    version     2.0;
    format      ascii;
    class       dictionary;
    location    "templates";
    object      wall;
}
// * * * * * * * * * * * * * * * * * * * * * * * * * * * * * * * * * * * * * //

noSlip
{
    p
    {
        type        zeroGradient;
    }
    nut
    {
        type        calculated;
        value       ${:VALUE.nut};
    }

    OPTIONS         (wallFunction motion);
}


slip
{
    U
    {
        type        slip;
    }
    p
    {
        type        zeroGradient;
    }
    nut
    {
        type        calculated;
        value       ${:VALUE.nut};
    }
    k
    {
        type        zeroGradient;
    }
    epsilon
    {
        type        zeroGradient;
    }
    omega
    {
        type        zeroGradient;
    }
}


// ************************************************************************* //
