/*--------------------------------*- C++ -*----------------------------------*\
|       o        |                                                            |
|    o     o     |  HELYX (R) : Open-source CFD for Enterprise                |
|   o   O   o    |  Version : 4.4.0                                           |
|    o     o     |  ENGYS Ltd. <http://engys.com/>                            |
|       o        |                                                            |
\*---------------------------------------------------------------------------*/
FoamFile
{
    version     2.0;
    format      ascii;
    class       dictionary;
    object      topoSetDict;
}

// * * * * * * * * * * * * * * * * * * * * * * * * * * * * * * * * * * * * * //

actions
(
    {
        name        coupledPatch;
        type        faceSet;
        action      new;
        source      patchToFace;
        sourceInfo
        {
            name    coupledPatch;
        }
    }

    {
        name        panel;
        type        faceZoneSet;
        action      new;
        source      setToFaceZone;
        sourceInfo
        {
            faceSet coupledPatch;
        }
    }
);

// ************************************************************************* //
