/*--------------------------------*- C++ -*----------------------------------*\
|       o        |                                                            |
|    o     o     |  HELYX (R) : Open-source CFD for Enterprise                |
|   o   O   o    |  Version : 4.4.0                                           |
|    o     o     |  ENGYS Ltd. <http://engys.com/>                            |
|       o        |                                                            |
\*---------------------------------------------------------------------------*/
FoamFile
{
    version     2.0;
    format      ascii;
    class       dictionary;
    object      topoSetDict;
}
// * * * * * * * * * * * * * * * * * * * * * * * * * * * * * * * * * * * * * //

actions
(
    {
        name    c0;
        type    cellSet;
        action  new;
        source  regionToCell;
        sourceInfo
        {
            insidePoints ((-4.999 0 -3.999));
        }
    }

    {
        name    c1;
        type    cellSet;
        action  new;
        source  cellToCell;
        sourceInfo
        {
            set c0;
        }
    }

    {
        name    c1;
        type    cellSet;
        action  invert;
    }
);

// ************************************************************************* //
