/*--------------------------------*- C++ -*----------------------------------*\
|       o        |                                                            |
|    o     o     |  HELYX (R) : Open-source CFD for Enterprise                |
|   o   O   o    |  Version : 4.4.0                                           |
|    o     o     |  ENGYS Ltd. <http://engys.com/>                            |
|       o        |                                                            |
\*---------------------------------------------------------------------------*/
FoamFile
{
    version     2.0;
    format      ascii;
    class       volScalarField;
    object      p_rgh;
}
// * * * * * * * * * * * * * * * * * * * * * * * * * * * * * * * * * * * * * //

dimensions      [1 -1 -2 0 0 0 0];

internalField   uniform 100000;

boundaryField
{
    floor
    {
        type            fixedFluxPressure;
        value           uniform 100000;
    }

    ceiling
    {
        type            fixedFluxPressure;
        value           uniform 100000;
    }

    fixedWalls
    {
        type            fixedFluxPressure;
        value           uniform 100000;
    }

    box
    {
        type            fixedFluxPressure;
        value           uniform 100000;
    }
}

// ************************************************************************* //
