/*--------------------------------*- C++ -*----------------------------------*\
|       o        |                                                            |
|    o     o     |  HELYX (R) : Open-source CFD for Enterprise                |
|   o   O   o    |  Version : 4.4.0                                           |
|    o     o     |  ENGYS Ltd. <http://engys.com/>                            |
|       o        |                                                            |
\*---------------------------------------------------------------------------*/
FoamFile
{
    version     2.0;
    format      ascii;
    class       dictionary;
    object      extrudeMeshDict;
}
// * * * * * * * * * * * * * * * * * * * * * * * * * * * * * * * * * * * * * //

sourceCase          "./";
sourcePatches       (patch_0_2);
constructFrom       patch;
exposedPatchName    patch_0_2;

flipNormals         false;

extrudeModel        plane;
thickness           0.001;

mergeTol            1e-6;
mergeFaces          false;


// ************************************************************************* //
