/*--------------------------------*- C++ -*----------------------------------*\
|       o        |                                                            |
|    o     o     |  HELYX (R) : Open-source CFD for Enterprise                |
|   o   O   o    |  Version : 4.4.0                                           |
|    o     o     |  ENGYS Ltd. <http://engys.com/>                            |
|       o        |                                                            |
\*---------------------------------------------------------------------------*/
FoamFile
{
    version     2.0;
    format      ascii;
    class       dictionary;
    object      controlDict;
}
// * * * * * * * * * * * * * * * * * * * * * * * * * * * * * * * * * * * * * //

application     helyxSolve;

startFrom       startTime;

startTime       0;

stopAt          endTime;

endTime         50;

deltaT          0.1;

writeControl    adjustableRunTime;

writeInterval   2;

purgeWrite      0;

writeFormat     ascii;

writePrecision  10;

writeCompression uncompressed;

timeFormat      general;

timePrecision   6;

graphFormat     raw;

runTimeModifiable yes;

libs            1 ( "" );

adjustTimeStep  no;

maxCo           1;

maxDeltaT       1;

functions
{
    VR
    {
        functionObjectLibs ( "libreport.so" );
        logToFile       yes;
        fields          ( U p );
        executeControl  onEnd;
        type            volumeReport;
        writeControl    onEnd;
        outputFileFormat tsv;
    }
    FR
    {
        functionObjectLibs ( "libforces.so" );
        directForceDensity false;
        p               p;
        U               U;
        rhoName         rhoInf;
        rhoInf          1;
        pRef            0;
        CofR            ( 0.25 0.007 0.125 );
        patches         ( ib1 );
        executeControl  timeStep;
        type            forces;
        writeControl    timeStep;
        writeInterval   1;
        log             true;
        outputFileFormat tsv;
    }
    SR_inout
    {
        functionObjectLibs ( "libreport.so" );
        logToFile       true;
        weighting       area;
        fluxName        phi;
        fields          ( U );
        surfaces        ( { type patch ; name Inlet ; } { type patch ; name Outlet ; } );
        constraints     ( );
        executeControl  timeStep;
        type            surfaceReport;
        outputFileFormat tsv;
    }
    SR_in
    {
        functionObjectLibs ( "libreport.so" );
        logToFile       true;
        weighting       area;
        fluxName        phi;
        fields          ( U );
        surfaces        ( { type patch ; name Inlet ; } );
        constraints     ( );
        executeControl  timeStep;
        type            surfaceReport;
        outputFileFormat tsv;
    }
}


// ************************************************************************* //
