/*--------------------------------*- C++ -*----------------------------------*\
|       o        |                                                            |
|    o     o     |  HELYX (R) : Open-source CFD for Enterprise                |
|   o   O   o    |  Version : 4.4.0                                           |
|    o     o     |  ENGYS Ltd. <http://engys.com/>                            |
|       o        |                                                            |
\*---------------------------------------------------------------------------*/
FoamFile
{
    version     2.0;
    format      binary;
    class       volScalarField;
    location    "0.0001/cabin";
    object      k;
}
// * * * * * * * * * * * * * * * * * * * * * * * * * * * * * * * * * * * * * //

dimensions      [0 2 -2 0 0 0 0];

internalField   uniform 0.00015;

boundaryField
{
    inlet
    {
        type            fixedValue;
        value           uniform 0.03375;
    }
    outlet
    {
        type            inletOutlet;
        inletValue      uniform 0.00015;
        value           uniform 0.00015;
    }
    symmetry
    {
        type            symmetryPlane;
    }
    walls
    {
        type            kqRWallFunction;
        value           uniform 0.00015;
    }
    cabin_to_ice
    {
        type            kqRWallFunction;
        value           uniform 0.00015;
    }
}


// ************************************************************************* //
