/*--------------------------------*- C++ -*----------------------------------*\
|       o        |                                                            |
|    o     o     |  HELYX (R) : Open-source CFD for Enterprise                |
|   o   O   o    |  Version : 4.4.0                                           |
|    o     o     |  ENGYS Ltd. <http://engys.com/>                            |
|       o        |                                                            |
\*---------------------------------------------------------------------------*/
FoamFile
{
    version     2.0;
    format      binary;
    class       volScalarField;
    location    "0.0001/cabin";
    object      p_rgh;
}
// * * * * * * * * * * * * * * * * * * * * * * * * * * * * * * * * * * * * * //

dimensions      [1 -1 -2 0 0 0 0];

internalField   uniform 100000;

boundaryField
{
    inlet
    {
        type            fixedFluxPressure;
        gradient        uniform 0;
        value           uniform 100000;
    }
    outlet
    {
        type            totalPressure;
        p0              uniform 100000;
    }
    symmetry
    {
        type            symmetryPlane;
    }
    walls
    {
        type            fixedFluxPressure;
        gradient        uniform 0;
        value           uniform 100000;
    }
    cabin_to_ice
    {
        type            fixedFluxPressure;
        gradient        uniform 0;
        value           uniform 100000;
    }
}


// ************************************************************************* //
