/*--------------------------------*- C++ -*----------------------------------*\
|       o        |                                                            |
|    o     o     |  HELYX (R) : Open-source CFD for Enterprise                |
|   o   O   o    |  Version : 4.4.0                                           |
|    o     o     |  ENGYS Ltd. <http://engys.com/>                            |
|       o        |                                                            |
\*---------------------------------------------------------------------------*/
FoamFile
{
    version     2.0;
    format      ascii;
    class       dictionary;
    location    "constant";
    object      chemistryProperties;
}
// * * * * * * * * * * * * * * * * * * * * * * * * * * * * * * * * * * * * * //

chemistryType
{
    solver   ode;
}

chemistry       on;

initialChemicalTimeStep 1e-7;

EulerImplicitCoeffs
{
    cTauChem        1;
}

odeCoeffs
{
    solver          seulex;
    absTol          1e-8;
    relTol          0.1;
}

#include "reactions"

// ************************************************************************* //
