/*--------------------------------*- C++ -*----------------------------------*\
|       o        |                                                            |
|    o     o     |  HELYX (R) : Open-source CFD for Enterprise                |
|   o   O   o    |  Version : 4.4.0                                           |
|    o     o     |  ENGYS Ltd. <http://engys.com/>                            |
|       o        |                                                            |
\*---------------------------------------------------------------------------*/
FoamFile
{
    version     2.0;
    format      ascii;
    class       dictionary;
    object      createPatchDict;
}
// * * * * * * * * * * * * * * * * * * * * * * * * * * * * * * * * * * * * * //

pointSync false;

// Patches to create.
patches
(
    {
        // Name of new patch
        name AMI_half0;

        // Dictionary to construct new patch from
        patchInfo
        {
            type cyclicAMI;
            neighbourPatch AMI_half1;

            transformType unspecified;
        }

        constructFrom patches;
        patches (AMI_master);
    }

    {
        // Name of new patch
        name AMI_half1;

        // Dictionary to construct new patch from
        patchInfo
        {
            type cyclicAMI;
            neighbourPatch AMI_half0;

            transformType unspecified;
        }

        constructFrom patches;
        patches (AMI_slave);
    }
);

// ************************************************************************* //
