/*--------------------------------*- C++ -*----------------------------------*\
|       o        |                                                            |
|    o     o     |  HELYX (R) : Open-source CFD for Enterprise                |
|   o   O   o    |  Version : 4.4.0                                           |
|    o     o     |  ENGYS Ltd. <http://engys.com/>                            |
|       o        |                                                            |
\*---------------------------------------------------------------------------*/
FoamFile
{
    version     2.0;
    format      ascii;
    class       dictionary;
    object      blockMeshDict;
}
// * * * * * * * * * * * * * * * * * * * * * * * * * * * * * * * * * * * * * //

convertToMeters 1;

vertices
(
    ( -0.9715705311 -0.7374241269 0.3631555 )
    ( 3.0183158636 -0.7374241269 0.3631555 )
    ( 3.0183158636 0.7374241269 0.3631555 )
    ( -0.9715705311 0.7374241269 0.3631555 )
    ( -0.9715705311 -0.7374241269 0.6368445 )
    ( 3.0183158636 -0.7374241269 0.6368445 )
    ( 3.0183158636 0.7374241269 0.6368445 )
    ( -0.9715705311 0.7374241269 0.6368445 )
);

blocks
(
    hex ( 0 1 2 3 4 5 6 7 ) ( 90 30 6 ) simpleGrading ( 1 1 1 )
);

edges ();

patches
(
    wall inlet ( ( 0 4 7 3 ) )
    wall outlet ( ( 1 2 6 5 ) )
    wall bottom ( ( 0 1 5 4 ) )
    wall top ( ( 3 7 6 2 ) )
    wall ffminz ( ( 0 3 2 1 ) )
    wall ffmaxz ( ( 4 5 6 7 ) )
);

mergePatchPairs ();


// ************************************************************************* //
