/*--------------------------------*- C++ -*----------------------------------*\
|       o        |                                                            |
|    o     o     |  HELYX (R) : Open-source CFD for Enterprise                |
|   o   O   o    |  Version : 4.4.0                                           |
|    o     o     |  ENGYS Ltd. <http://engys.com/>                            |
|       o        |                                                            |
\*---------------------------------------------------------------------------*/
FoamFile
{
    version     2.0;
    format      ascii;
    class       dictionary;
    object      controlDict;
}
// * * * * * * * * * * * * * * * * * * * * * * * * * * * * * * * * * * * * * //

application helyxSolve;

startFrom latestTime;

startTime 0;

stopAt endTime;

endTime 1000.0;

deltaT constant 1.0;

writeControl timeStep;

writeInterval 50.0;

purgeWrite 2;

writeFormat ascii;

writePrecision 10;

writeCompression uncompressed;

timeFormat general;

timePrecision 6;

graphFormat raw;

runTimeModifiable true;

adjustTimeStep false;

functions
{
    VR
    {
        functionObjectLibs ( "libreport.so" );
        logToFile       true;
        fields          ( nonOrthogonality );
        writeControl    onEnd;
        executeControl  onEnd;
        type            volumeReport;
        outputFileFormat tsv;
    }
}


// ************************************************************************* //
