/*--------------------------------*- C++ -*----------------------------------*\
|       o        |                                                            |
|    o     o     |  HELYX (R) : Open-source CFD for Enterprise                |
|   o   O   o    |  Version : 4.4.0                                           |
|    o     o     |  ENGYS Ltd. <http://engys.com/>                            |
|       o        |                                                            |
\*---------------------------------------------------------------------------*/
FoamFile
{
    version     2.0;
    format      ascii;
    class       volScalarField;
    location    "0/air";
    object      epsilon;
}
// * * * * * * * * * * * * * * * * * * * * * * * * * * * * * * * * * * * * * //

dimensions      [ 0 2 -3 0 0 0 0 ];

internalField   uniform 0.01;

boundaryField
{
    maxY
    {
        type            inletOutlet;
        value           uniform 0.01;
        inletValue      uniform 0.01;
    }
    minX
    {
        type            inletOutlet;
        value           uniform 0.01;
        inletValue      uniform 0.01;
    }
    maxX
    {
        type            inletOutlet;
        value           uniform 0.01;
        inletValue      uniform 0.01;
    }
    minY
    {
        type            inletOutlet;
        value           uniform 0.01;
        inletValue      uniform 0.01;
    }
    maxZ
    {
        type            inletOutlet;
        value           uniform 0.01;
        inletValue      uniform 0.01;
    }
    air_to_floor
    {
        type            epsilonWallFunction;
        value           uniform 0.01;
        inletValue      uniform 0.01;
    }
    air_to_solid
    {
        type            epsilonWallFunction;
        value           uniform 0.01;
        inletValue      uniform 0.01;
    }
}


// ************************************************************************* //
