/*--------------------------------*- C++ -*----------------------------------*\
|       o        |                                                            |
|    o     o     |  HELYX (R) : Open-source CFD for Enterprise                |
|   o   O   o    |  Version : 4.4.0                                           |
|    o     o     |  ENGYS Ltd. <http://engys.com/>                            |
|       o        |                                                            |
\*---------------------------------------------------------------------------*/
FoamFile
{
    version     2.0;
    format      ascii;
    class       dictionary;
    object      environmentalProperties;
}
// * * * * * * * * * * * * * * * * * * * * * * * * * * * * * * * * * * * * * //

seaLevel	5.000;
seaLevelAsReference false;

relaxationNames ();

initializationName cyclic1;

cyclic1Coeffs
{
    waveType	solitaryFirst;
    height	2.0;
    depth       5;
    direction   (1 0 0);
    x0          (150 0 0);
};

// ************************************************************************* //
