/*--------------------------------*- C++ -*----------------------------------*\
|       o        |                                                            |
|    o     o     |  HELYX (R) : Open-source CFD for Enterprise                |
|   o   O   o    |  Version : 4.4.0                                           |
|    o     o     |  ENGYS Ltd. <http://engys.com/>                            |
|       o        |                                                            |
\*---------------------------------------------------------------------------*/
FoamFile
{
    version     2.0;
    format      ascii;
    class       dictionary;
    object      blockMeshDict;
}
// * * * * * * * * * * * * * * * * * * * * * * * * * * * * * * * * * * * * * //

convertToMeters 1;

vertices        
(
    (-1.0 -1.0 -1.0)
    (1.0 -1.0 -1.0)
    (1.0 1.0 -1.0)
    (-1.0 1.0 -1.0)

    (-1.0 -1.0 1.0)
    (1.0 -1.0 1.0)
    (1.0 1.0 1.0)
    (-1.0 1.0 1.0)
);

blocks          
(
    hex (0 1 2 3 4 5 6 7) (4 4 4) simpleGrading (1 1 1)
);

edges           
(
);

patches
(
    patch inlet
    (
        (0 4 7 3)
    )
    
    patch outlet
    (
        (1 2 6 5)
    )
    
    wall ffmaxy
    (
        (3 7 6 2)
    )
    
    wall ffminy
    (
        (0 1 5 4)
    )
    
    wall ffmaxz
    (
        (4 5 6 7)
    )
    
    wall road
    (
        (0 3 2 1)
    )
);

mergePatchPairs
(
);

// ************************************************************************* //
