/*--------------------------------*- C++ -*----------------------------------*\
|       o        |                                                            |
|    o     o     |  HELYX (R) : Open-source CFD for Enterprise                |
|   o   O   o    |  Version : 4.4.0                                           |
|    o     o     |  ENGYS Ltd. <http://engys.com/>                            |
|       o        |                                                            |
\*---------------------------------------------------------------------------*/
FoamFile
{
    version     2.0;
    format      ascii;
    class       dictionary;
    location    "constant";
    object      surfaceFilmProperties;
}

// * * * * * * * * * * * * * * * * * * * * * * * * * * * * * * * * * * * * * //

surfaceFilmModel thermoSingleLayer;
region           wallFilmRegion;
active           true;

viscosity
{
    model       Newtonian;
}

sigma       0.07;

deltaWet    1e-12;

hydrophilic no;

turbulenceModel
{
    model       laminar;
    Cf          0.001;
}

forces
{
    thermocapillary;

    distributionContactAngle
    {
        Ccf             1;

        distribution
        {
            type            normal;
            normalDistribution
            {
                minValue        50;
                maxValue        100;
                expectation     75;
                variance        100;
            }
        }
    }
}

upperSurfaceModels
{
    heatTransfer
    {
        model    constant;
        c0       1;
    }
}

lowerSurfaceModels
{
    heatTransfer
    {
        model    constant;
        c0       1;
    }
}

// ************************************************************************* //
