/*--------------------------------*- C++ -*----------------------------------*\
|       o        |                                                            |
|    o     o     |  HELYX (R) : Open-source CFD for Enterprise                |
|   o   O   o    |  Version : 4.4.0                                           |
|    o     o     |  ENGYS Ltd. <http://engys.com/>                            |
|       o        |                                                            |
\*---------------------------------------------------------------------------*/
FoamFile
{
    version     2.0;
    format      ascii;
    class       volVectorField;
    location    "0";
    object      U.org;
}
// * * * * * * * * * * * * * * * * * * * * * * * * * * * * * * * * * * * * * //

dimensions      [0 1 -1 0 0 0 0];

internalField   uniform ( 0.0 0.0 0.0); 

boundaryField
{
    inlet
    {
        type            waveVelocity;
        refValue        uniform ( 0 0 0 ); 
        refGradient     uniform ( 0 0 0 );
        valueFraction   uniform 1;
        value           uniform ( 0 0 0 ); 
    }
    bottom
    {
        type            fixedValue;
        value           uniform ( 0 0 0 );
    }
    outlet
    {
        type            fixedValue;
        value           uniform ( 0 0 0 );
    }
    atmosphere
    {
        type            pressureInletOutletVelocity;
        value           uniform ( 0 0 0 );
    }
    frontBack
    {
        type            empty;
    }
}


// ************************************************************************* //
