FoamFile
{
    version     2.0;
    format      ascii;
    class       dictionary;
    object      helyxVDBSurfaceWrap;
}
// * * * * * * * * * * * * * * * * * * * * * * * * * * * * * * * * * * * * * //

geometry
{
    F1_car_halo.step
    {
        type CADSurface;
        name halo;

        linDeflection 1;
        angDeflection 1;

        forceTriangulation true;
    }
}

minEdge  5;
isoValue 20; // default 0

outputFile "halo_box.obj";


// ************************************************************************* //
