/*--------------------------------*- C++ -*----------------------------------*\
|       o        |                                                            |
|    o     o     |  HELYX (R) : Open-source CFD for Enterprise                |
|   o   O   o    |  Version : 4.4.0                                           |
|    o     o     |  ENGYS Ltd. <http://engys.com/>                            |
|       o        |                                                            |
\*---------------------------------------------------------------------------*/
FoamFile
{
    version     2.0;
    format      ascii;
    class       dictionary;
    location    "system";
    object      fvSolution;
}
// * * * * * * * * * * * * * * * * * * * * * * * * * * * * * * * * * * * * * //

solvers
{
    "(D|T)"
    {
        solver          GAMG;
        tolerance       1e-06;
        relTol          0.9;
        smoother        GaussSeidel;
        nCellsInCoarsestLevel 20;
    }
}

stressAnalysis
{
    compactNormalStress yes;
    nCorrectors     1;
    D               1e-06;
}


// ************************************************************************* //
