/*--------------------------------*- C++ -*----------------------------------*\
|       o        |                                                            |
|    o     o     |  HELYX (R) : Open-source CFD for Enterprise                |
|   o   O   o    |  Version : 4.4.0                                           |
|    o     o     |  ENGYS Ltd. <http://engys.com/>                            |
|       o        |                                                            |
\*---------------------------------------------------------------------------*/
FoamFile
{
    version     2.0;
    format      ascii;
    class       dictionary;
    object      topoSetDict;
}
// * * * * * * * * * * * * * * * * * * * * * * * * * * * * * * * * * * * * * //

actions
(
    {
        name    cyclicFacesFaceSet;
        type    faceSet;
        action  new;
        source  boxToFace;
        sourceInfo
        {
            box (0.099 -0.006 0.004)(0.101 0.006 0.016);
        }
    }
    {
        name    cyclicFacesSlaveCells;
        type    cellSet;
        action  new;
        source  boxToCell;
        sourceInfo
        {
            box (-10 -10 -10)(0.1 10 10);
        }
    }
    {
        name    fan;
        type    faceZoneSet;
        action  new;
        source  setsToFaceZone;
        sourceInfo
        {
            faceSet cyclicFacesFaceSet;
            cellSet cyclicFacesSlaveCells;
        }
    }

    {
        name    baffleFaceSet;
        type    faceSet;
        action  new;
        source  boxToFace;
        sourceInfo
        {
            box (0.099 -10 -10)(0.101 10 10);
        }
    }
    {
        name    baffleFaceSet;
        type    faceSet;
        action  delete;
        source  boxToFace;
        sourceInfo
        {
            box (0.099 -0.006 0.004)(0.101 0.006 0.016);
        }
    }
    {
        name    baffle;
        type    faceZoneSet;
        action  new;
        source  setToFaceZone;
        sourceInfo
        {
            faceSet baffleFaceSet;
        }
    }
);


// ************************************************************************* //
