/*--------------------------------*- C++ -*----------------------------------*\
|       o        |                                                            |
|    o     o     |  HELYX (R) : Open-source CFD for Enterprise                |
|   o   O   o    |  Version : 4.4.0                                           |
|    o     o     |  ENGYS Ltd. <http://engys.com/>                            |
|       o        |                                                            |
\*---------------------------------------------------------------------------*/
FoamFile
{
    version     2.0;
    format      ascii;
    class       dictionary;
    location    "system";
    object      setFieldsDict;
}
// * * * * * * * * * * * * * * * * * * * * * * * * * * * * * * * * * * * * * //

defaultFieldValues ( volVectorFieldValue U (0 0 0) volScalarFieldValue T 348.432 volScalarFieldValue p 100000 );

regions 
( 
    boxToCell 
    { 
        box (0 -1 -1) (5 1 1) ; fieldValues ( volScalarFieldValue T 278.746 volScalarFieldValue p 10000 ) ; 
    } 
);


// ************************************************************************* //
