/*--------------------------------*- C++ -*----------------------------------*\
|       o          |                                                          |
|    o     o       | HELYX(R): Open-source CFD for Enterprise                 |
|   o   O   o      | Version: 4.4.0                                           |
|    o     o       | Engys Ltd. http://www.engys.com                          |
|       o          |                                                          |
\*---------------------------------------------------------------------------*/
FoamFile
{
    version 2.0;
    format ascii;
    class dictionary;
    location system;
    object customNodeDict;
}
    system
    {
        helyx_type directory;
        helyxHexMeshDict
        {
            addLayersControls
            {
                layers
                {
                    "(hot_air_to_pipe|pipe_to_hot_air|pipe_to_cool_air|cool_air_to_pipe)"
                    {
                        nSurfaceLayers 2;
                        finalLayerThickness 0.4;
                        expansionRatio 1.25;
                        grownUp automatic;
                    }
                    pipe
                    {
                        grownUp true;
                    }
                    inlet
                    {
                        grownUp true;
                    }
                    outlet
                    {
                        grownUp true;
                    }
                    inside
                    {
                        grownUp true;
                    }
                    outside
                    {
                        grownUp true;
                    }
                }
            }
            helyx_type dictionary;
        }
    }
    constant
    {
        helyx_type directory;
    }
    0
    {
        helyx_type directory;
    }
