/*--------------------------------*- C++ -*----------------------------------*\
|       o        |                                                            |
|    o     o     |  HELYX (R) : Open-source CFD for Enterprise                |
|   o   O   o    |  Version : 4.4.0                                           |
|    o     o     |  ENGYS Ltd. <http://engys.com/>                            |
|       o        |                                                            |
\*---------------------------------------------------------------------------*/
FoamFile
{
    version     2.0;
    format      ascii;
    class       dictionary;
    object      postProcessingProperties;
}
// * * * * * * * * * * * * * * * * * * * * * * * * * * * * * * * * * * * * * //

deleteParentOutputDirectory false;

regularSpectrum
{
    callName surfaceElevation;

    removeDuplicate true;
    inputDir surfaceElevationAnyName/0.0011976;

    deltaT 0.01;
    tMin    10.0; // Default: minimum time
    //tMax    11.0; // Default: maximum time

    // The action list is a set of processes on the data
    actionList ( interpolateSurfaceElevation powerSpectraLS write2Ascii removeData );

    nFreq 4;
    period 2.0;
    allDataSets true;
}

// ************************************************************************* //
