/*--------------------------------*- C++ -*----------------------------------*\
|       o        |                                                            |
|    o     o     |  HELYX (R) : Open-source CFD for Enterprise                |
|   o   O   o    |  Version : 4.4.0                                           |
|    o     o     |  ENGYS Ltd. <http://engys.com/>                            |
|       o        |                                                            |
\*---------------------------------------------------------------------------*/
FoamFile
{
    version     2.0;
    format      ascii;
    class       dictionary;
    object      blockMeshDict;
}
// * * * * * * * * * * * * * * * * * * * * * * * * * * * * * * * * * * * * * //
 convertToMeters 1e-3;

 vertices
 (
 ( 0 0 0 ) //0
 ( 4 0 0 ) //1
 ( 13 0 0 ) //2
 ( 13 2 0 ) //3
 ( 13 3 0 ) //4
 ( 13 6 0 ) //5
 ( 4 6 0 ) //6
 ( 3 6 0 ) //7
 ( 3 3 0 ) //8
 ( 4 3 0 ) //9
 ( 4 2 0 ) //10
 ( 0 2 0 ) //11
 ( 0 0 0.1 ) //12
 ( 4 0 0.1 ) //13
 ( 13 0 0.1 ) //14
 ( 13 2 0.1 ) //15
 ( 13 3 0.1 ) //16
 ( 13 6 0.1 ) //17
 ( 4 6 0.1 ) //18
 ( 3 6 0.1 ) //19
 ( 3 3 0.1 ) //20
 ( 4 3 0.1 ) //21
 ( 4 2 0.1 ) //22
 ( 0 2 0.1 ) //23
 );

 blocks
 (
 hex (0 1 10 11 12 13 22 23) (20 20 1) simpleGrading (0.3 1 1) //0
 hex (1 2 3 10 13 14 15 22) (90 20 1) simpleGrading ( 1 1 1) //1
 hex (10 3 4 9 22 15 16 21) (90 10 1) simpleGrading ( 1 1 1) //2
 hex (9 4 5 6 21 16 17 18) (90 20 1) simpleGrading ( 1 2 1) //3
 hex (8 9 6 7 20 21 18 19) (10 20 1) simpleGrading ( 1 2 1) //4
 );
 edges
 (
 );
 patches
 (
 patch inletCH4
 (
 (0 12 23 11)
 )
 patch outlet
 (
 (3 15 14 2)
 (4 16 15 3)
 (5 17 16 4)
 )
 wall wallTube
 (
 (7 19 18 6)
 (6 18 17 5)
 (8 20 19 7)
 (8 9 21 20)
 (10 22 21 9)
 (11 10 22 23)
 )

 symmetry symmetry
 (
 (0 1 13 12)
 (1 2 14 13)
 )
 empty frontAndBack_pos
 (
 (0 1 10 11)
 (1 2 3 10)
 (10 3 4 9)
 (9 4 5 6)
 (8 9 6 7)
 )
 empty frontAndBack_neg
 (
 (12 13 22 23)
 (13 14 15 22)
 (22 15 16 21)
 (21 16 17 18)
 (20 21 18 19)
 )
);

mergePatchPairs
 (
 );
 // ************************************************************************* //
