/*--------------------------------*- C++ -*----------------------------------*\
|       o        |                                                            |
|    o     o     |  HELYX (R) : Open-source CFD for Enterprise                |
|   o   O   o    |  Version : 4.4.0                                           |
|    o     o     |  ENGYS Ltd. <http://engys.com/>                            |
|       o        |                                                            |
\*---------------------------------------------------------------------------*/
FoamFile
{
    version     2.0;
    format      ascii;
    class       dictionary;
    object      blockMeshDict;
}
// * * * * * * * * * * * * * * * * * * * * * * * * * * * * * * * * * * * * * //

convertToMeters 1;

vertices
(
    ( -0.04 -0.3 -0.001 )
    ( 0.14 -0.3 -0.001 )
    ( 0.14 0.3 -0.001 )
    ( -0.04 0.3 -0.001 )
    ( -0.04 -0.3 0.011 )
    ( 0.14 -0.3 0.011 )
    ( 0.14 0.3 0.011 )
    ( -0.04 0.3 0.011 )
);

blocks
(
    hex ( 0 1 2 3 4 5 6 7 ) ( 80 200 1 ) simpleGrading ( 1 1 1 )
);

edges ();

patches
(
    wall ffminx ( ( 0 4 7 3 ) )
    wall ffmaxx ( ( 1 2 6 5 ) )
    wall inlet ( ( 0 1 5 4 ) )
    wall outlet ( ( 3 7 6 2 ) )
    wall front ( ( 0 3 2 1 ) )
    wall back ( ( 4 5 6 7 ) )
);

mergePatchPairs ();


// ************************************************************************* //
