/*--------------------------------*- C++ -*----------------------------------*\
|       o        |                                                            |
|    o     o     |  HELYX (R) : Open-source CFD for Enterprise                |
|   o   O   o    |  Version : 4.4.0                                           |
|    o     o     |  ENGYS Ltd. <http://engys.com/>                            |
|       o        |                                                            |
\*---------------------------------------------------------------------------*/
FoamFile
{
    version     2.0;
    format      ascii;
    class       dictionary;
    object      extrudeToRegionMeshDict;
}
// * * * * * * * * * * * * * * * * * * * * * * * * * * * * * * * * * * * * * //

region          panelRegion;

faceZones       (wallPanel internalWallPanel);

oneD            true;

sampleMode      nearestPatchFace;

extrudeModel    linearNormal;

oneDPolyPatchType empty;

nLayers         15;

expansionRatio  1.2;

adaptMesh       true; // directMapped for both

linearNormalCoeffs
{
    thickness       0.0254;
}
// * * * * * * * * * * * * * * * * * * * * * * * * * * * * * * * * * * * * * //
