/*--------------------------------*- C++ -*----------------------------------*\
|       o        |                                                            |
|    o     o     |  HELYX (R) : Open-source CFD for Enterprise                |
|   o   O   o    |  Version : 4.4.0                                           |
|    o     o     |  ENGYS Ltd. <http://engys.com/>                            |
|       o        |                                                            |
\*---------------------------------------------------------------------------*/
FoamFile
{
    version     2.0;
    format      ascii;
    class       volVectorField;
    location    "0";
    object      U;
}
// * * * * * * * * * * * * * * * * * * * * * * * * * * * * * * * * * * * * * //

Umean 1.668;
mUmean -1.668;

dimensions      [0 1 -1 0 0 0 0];

internalField   uniform ($mUmean 0 0);

boundaryField
{
    #includeEtc "caseDicts/setConstraintTypes"

    inlet
    {
        type            fixedValue;
        value           $internalField;
    }

    outlet
    {
        type            outletPhaseMeanVelocity;
        alpha           alpha.water;
        Umean           $Umean;
        value           $internalField;
    }

    atmosphere
    {
        type            pressureInletOutletVelocity;
        tangentialVelocity $internalField;
        value           uniform (0 0 0);
    }

    hull
    {
        type            movingWallVelocity;
        value           uniform (0 0 0);
    }
}


// ************************************************************************* //
