/*--------------------------------*- C++ -*----------------------------------*\
|       o          |                                                          |
|    o     o       | HELYX(R) Core: Open-source CFD for Enterprise            |
|   o   O   o      | Version: 4.4.0                                           |
|    o     o       | ENGYS Ltd. <http://engys.com/>                           |
|       o          |                                                          |
\*---------------------------------------------------------------------------*/
FoamFile
{
    version     2.0;
    format      binary;
    class       dictionary;
    arch        "LSB;label=32;scalar=64";
    location    "constant";
    object      transportProperties;
}
// * * * * * * * * * * * * * * * * * * * * * * * * * * * * * * * * * * * * * //

materialName    air;

transportModel  Newtonian;

NewtonianCoeffs
{
}

rho             [ 1 -3 0 0 0 0 0 ] 1.205;

nu              [ 0 2 -1 0 0 0 0 ] 1.513029046e-05;

TRef            [ 0 0 0 1 0 0 0 ] 293.15;

Cp              [ 0 2 -2 -1 0 0 0 ] 1006.8;

Prt             [ 0 0 0 0 0 0 0 ] 0.85;

lambda          [ 1 1 -3 -1 0 0 0 ] 0.0257;

mu              [ 1 -1 -1 0 0 0 0 ] 1.8232e-05;

pRef            [ 1 -1 -2 0 0 0 0 ] 101325;

Beta            [ 0 0 0 -1 0 0 0 ] 0.00343;


// ************************************************************************* //
