/*--------------------------------*- C++ -*----------------------------------*\
|       o        |                                                            |
|    o     o     |  HELYX (R) : Open-source CFD for Enterprise                |
|   o   O   o    |  Version : 4.4.0                                           |
|    o     o     |  ENGYS Ltd. <http://engys.com/>                            |
|       o        |                                                            |
\*---------------------------------------------------------------------------*/
FoamFile
{
    version     2.0;
    format      ascii;
    class       dictionary;
    object      controlDict;
}
// * * * * * * * * * * * * * * * * * * * * * * * * * * * * * * * * * * * * * //

application     helyxSolve;

startFrom       latestTime;

startTime       0;

stopAt          endTime;

endTime         0.1;

deltaT          1e-05;

writeControl    timeStep;

writeInterval   100;

purgeWrite      0;

writeFormat     ascii;

writePrecision  6;

writeCompression off;

timeFormat      general;

timePrecision   6;

graphFormat     raw;

runTimeModifiable true;

libs            1 ( "" );

adjustTimeStep  no;

maxCo           1;

maxDeltaT       1;

functions
{
    probes
    {
        functionObjectLibs ( "libsampling.so" );
        enabled         true;
        probeLocations  ( ( 0.0254 0.0253 0 ) ( 0.0508 0.0253 0 ) ( 0.0762 0.0253 0 ) ( 0.1016 0.0253 0 ) ( 0.127 0.0253 0 ) ( 0.1524 0.0253 0 ) ( 0.1778 0.0253 0 ) );
        fields          ( p );
        executeControl  timeStep;
        type            probes;
        libs            ( "libsampling.so" );
        writeControl    timeStep;
        writeInterval   1;
    }
    fieldAverage1
    {
        functionObjectLibs ( "libfieldFunctionObjects.so" );
        fields          
        (
            U
            {
                mean            on;
                prime2Mean      on;
                base            time;
            }

            p
            {
                mean            on;
                prime2Mean      on;
                base            time;
            }

        )
;
        executeControl  timeStep;
        writeControl    writeTime;
        type            fieldAverage;
        libs            ( "libfieldFunctionObjects.so" );
    }
    surfaceSampling
    {
        functionObjectLibs ( "libsampling.so" );
        fields          ( U );
        interpolationScheme cellPoint;
        surfaceFormat   vtk;
        surfaces        
        (
            nearWall
            {
                type            patchInternalField;
                patches         ( lowerWall );
                distance        1e-06;
                interpolate     true;
                triangulate     false;
            }

        )
;
        writeControl    writeTime;
        type            surfaces;
        libs            ( "libsampling.so" );
    }
    fieldBlending
    {
        functionObjectLibs ( "libfieldFunctionObjects.so" );
        executeControl  timeStep;
        writeControl    writeTime;
        type            fieldBlendingFactor;
        blendingSources 
        (
            zonalDES
            {
                type            zonalDES;
                CDES            1;
                minValue        0;
                maxValue        1;
                minCoeff        0;
                maxCoeff        1;
                functionType    cubic;
                write           false;
            }

        )
;
        fieldBlending   
        (
            U
            {
                stabilise       10;
                blendingSources 
                (
                    cfl1
                    {
                        type            cfl;
                        minValue        2;
                        maxValue        4;
                        minCoeff        1;
                        maxCoeff        0;
                        functionType    cubic;
                        phi             phi;
                        rho             rho;
                        write           false;
                    }

                )
;
            }

        )
;
        regions         1 ( region0 );
    }
}


// ************************************************************************* //
