/*--------------------------------*- C++ -*----------------------------------*\
|       o        |                                                            |
|    o     o     |  HELYX (R) : Open-source CFD for Enterprise                |
|   o   O   o    |  Version : 4.4.0                                           |
|    o     o     |  ENGYS Ltd. <http://engys.com/>                            |
|       o        |                                                            |
\*---------------------------------------------------------------------------*/
FoamFile
{
    version     2.0;
    format      ascii;
    class       dictionary;
    object      createBafflesDict;
}
// * * * * * * * * * * * * * * * * * * * * * * * * * * * * * * * * * * * * * //

internalFacesOnly true;

baffles
{
    rotating
    {
        type        faceZone;
        zoneName    rotating;

        patches
        {
            master
            {
                name            nonCouple1;
                type            patch;
                inGroups        (nonCouple);
            }
            slave
            {
                name            nonCouple2;
                type            patch;
                inGroups        (nonCouple);
            }
        }
    }
}


// ************************************************************************* //
