/*--------------------------------*- C++ -*----------------------------------*\
|       o        |                                                            |
|    o     o     |  HELYX (R) : Open-source CFD for Enterprise                |
|   o   O   o    |  Version : 4.4.0                                           |
|    o     o     |  ENGYS Ltd. <http://engys.com/>                            |
|       o        |                                                            |
\*---------------------------------------------------------------------------*/

FoamFile
{
    version         2.0;
    format          ascii;

    root            "/home/penfold/mattijs/foam/mattijs2.1/run/icoFoam";
    case            "cavity";
    instance        "system";
    local           "";

    class           dictionary;
    object          createPatcheDict;
}

// * * * * * * * * * * * * * * * * * * * * * * * * * * * * * * * * * * * * * //

patches
(
    {
        //Using a face zone definition to create cyclic jump:
        name window;
        jumpDir (1 0 0);
        faceZone windows_zone;

    }
);

// ************************************************************************* //
