/*--------------------------------*- C++ -*----------------------------------*\
|       o        |                                                            |
|    o     o     |  HELYX (R) : Open-source CFD for Enterprise                |
|   o   O   o    |  Version : 4.4.0                                           |
|    o     o     |  ENGYS Ltd. <http://engys.com/>                            |
|       o        |                                                            |
\*---------------------------------------------------------------------------*/
FoamFile
{
    version     2.0;
    format      ascii;
    class       dictionary;
    object      blockMeshDict;
}
// * * * * * * * * * * * * * * * * * * * * * * * * * * * * * * * * * * * * * //

convertToMeters 1;

vertices
(
    (0 0 -0.005)
    (0.2 0 -0.005)
    (0 0.04 -0.005)
    (0.2 0.04 -0.005)
    (0.5 0.04 -0.005)
    (0 0.1 -0.005)
    (0.2 0.1 -0.005)
    (0.5 0.1 -0.005)
    (0 0 0.005)
    (0.2 0 0.005)
    (0 0.04 0.005)
    (0.2 0.04 0.005)
    (0.5 0.04 0.005)
    (0 0.1 0.005)
    (0.2 0.1 0.005)
    (0.5 0.1 0.005)
);

blocks
(
    hex (0 1 3 2 8 9 11 10) (100 20 1) simpleGrading (1 1 1)
    hex (2 3 6 5 10 11 14 13) (100 30 1) simpleGrading (1 1 1)
    hex (3 4 7 6 11 12 15 14) (150 30 1) simpleGrading (1 1 1)
);

edges
();

patches
(
    wall wallIn
    (
        (0 8 10 2)
        (2 10 13 5)
    )
    wall right
    (
        (4 7 15 12)
    )
    wall bottom
    (
        (0 1 9 8)
    )
    outlet top
    (
        (5 13 14 6)
        (6 14 15 7)
    )
    wall obstacle
    (
        (1 3 11 9)
        (3 4 12 11)
    )
);

mergePatchPairs
();


// ************************************************************************* //
