/*--------------------------------*- C++ -*----------------------------------*\
|       o        |                                                            |
|    o     o     |  HELYX (R) : Open-source CFD for Enterprise                |
|   o   O   o    |  Version : 4.4.0                                           |
|    o     o     |  ENGYS Ltd. <http://engys.com/>                            |
|       o        |                                                            |
\*---------------------------------------------------------------------------*/
FoamFile
{
    version     2.0;
    format      ascii;
    class       dictionary;
    object      blockMeshDict;
}
// * * * * * * * * * * * * * * * * * * * * * * * * * * * * * * * * * * * * * //

convertToMeters 1;

vertices
(
    ( 0.0 0.0 0.0 )
    ( 50.0 0.0 0.0 )
    ( 50.0 80.0 0.0 )
    ( 0.0 80.0 0.0 )
    ( 0.0 0.0 6.0 )
    ( 50.0 0.0 6.0 )
    ( 50.0 80.0 6.0 )
    ( 0.0 80.0 6.0 )
);

blocks
(
    hex ( 0 1 2 3 4 5 6 7 ) ( 75 120 9 ) simpleGrading ( 1 1 1 )
);

edges ( );

patches
(
    wall side1 ( ( 0 4 7 3 ) )
    wall side2 ( ( 1 2 6 5 ) )
    wall side3 ( ( 0 1 5 4 ) )
    wall side4 ( ( 3 7 6 2 ) )
    wall ground ( ( 0 3 2 1 ) )
    wall top ( ( 4 5 6 7 ) )
);

mergePatchPairs ( );


// ************************************************************************* //
