/*--------------------------------*- C++ -*----------------------------------*\
|       o        |                                                            |
|    o     o     |  HELYX (R) : Open-source CFD for Enterprise                |
|   o   O   o    |  Version : 4.4.0                                           |
|    o     o     |  ENGYS Ltd. <http://engys.com/>                            |
|       o        |                                                            |
\*---------------------------------------------------------------------------*/
FoamFile
{
    version     2.0;
    format      ascii;
    class       volScalarField;
    object      rho;
}
// * * * * * * * * * * * * * * * * * * * * * * * * * * * * * * * * * * * * * //

dimensions      [1 -3 0 0 0];

internalField   uniform 845;

boundaryField
{
    inlet
    {
        type            fixedValue;
        value           uniform 845;
    }

    outlet
    {
        type            fixedValue;
        value           uniform 835;
    }

    walls
    {
        type            zeroGradient;
    }

    frontBack
    {
        type            empty;
    }
}

// ************************************************************************* //
