/*--------------------------------*- C++ -*----------------------------------*\
|       o        |                                                            |
|    o     o     |  HELYX (R) : Open-source CFD for Enterprise                |
|   o   O   o    |  Version : 4.4.0                                           |
|    o     o     |  ENGYS Ltd. <http://engys.com/>                            |
|       o        |                                                            |
\*---------------------------------------------------------------------------*/
FoamFile
{
    version     2.0;
    format      ascii;
    class       dictionary;
    location    "constant";
    object      engineGeometry;
}
// * * * * * * * * * * * * * * * * * * * * * * * * * * * * * * * * * * * * * //

engineMesh      layered;

conRodLength    conRodLength [0 1 0 0 0 0 0] 0.147;

bore            bore [0 1 0 0 0 0 0] 0.092;

stroke          stroke [0 1 0 0 0 0 0] 0.08423;

clearance       clearance [0 1 0 0 0 0 0] 0.00115;

rpm             rpm [0 0 -1 0 0 0 0] 1500;


// ************************************************************************* //
