/*--------------------------------*- C++ -*----------------------------------*\
|       o        |                                                            |
|    o     o     |  HELYX (R) : Open-source CFD for Enterprise                |
|   o   O   o    |  Version : 4.4.0                                           |
|    o     o     |  ENGYS Ltd. <http://engys.com/>                            |
|       o        |                                                            |
\*---------------------------------------------------------------------------*/
FoamFile
{
    version     2.0;
    format      ascii;
    class       dictionary;
    object      extrudeToRegionMeshDict;
}
// * * * * * * * * * * * * * * * * * * * * * * * * * * * * * * * * * * * * * //

region          floor;

faceZones       (floor_zone);

oneD            false;

sampleMode      nearestPatchFace;

oneDPolyPatchType empty; //wedge

extrudeModel    linearNormal;

nLayers         5;

expansionRatio  1;

adaptMesh       true; // mapped for both

linearNormalCoeffs
{
    thickness       1;
}


// ************************************************************************* //
