/*--------------------------------*- C++ -*----------------------------------*\
|       o        |                                                            |
|    o     o     |  HELYX (R) : Open-source CFD for Enterprise                |
|   o   O   o    |  Version : 4.4.0                                           |
|    o     o     |  ENGYS Ltd. <http://engys.com/>                            |
|       o        |                                                            |
\*---------------------------------------------------------------------------*/
FoamFile
{
    version     2.0;
    format      ascii;
    class       dictionary;
    object      topoSetDict;
}
// * * * * * * * * * * * * * * * * * * * * * * * * * * * * * * * * * * * * * //

actions
(
    // solid
    {
        name    solid;
        type    cellSet;
        action  new;
        source  boxToCell;
        sourceInfo
        {
            box     (15.5  15.5 0)(24.5 24.5 9);
        }
    }

    // floor
    {
        name    floor;
        type    cellSet;
        action  new;
        source  boxToCell;
        sourceInfo
        {
            box     (0  0 -2)(41 41 0);
        }
    }

    {
        name    floor;
        type    cellZoneSet;
        action  new;
        source  setToCellZone;
        sourceInfo
        {
            set     floor;
        }
    }

    //air
    {
        name    solid;
        type    cellSet;
        action  invert;
    }
    {
        name    solid;
        type    cellSet;
        action  delete; //subtract;
        source  cellToCell;
        sourceInfo
        {
            set     floor;
        }
    }

    {
        name    air;
        type    cellZoneSet;
        action  new;
        source  setToCellZone;
        sourceInfo
        {
            set     solid;           // cellSet
        }
    }

    {
        name    cavity;
        type    cellSet;
        action  new;
        source  boxToCell;
        sourceInfo
        {
            box     (17  17 0)(23 23 7.5);
        }
    }

    //- Define again solid
    {
        name    solidCells;
        type    cellSet;
        action  new;
        source  boxToCell;
        sourceInfo
        {
            box     (15.5  15.5 0)(24.5 24.5 9);
        }
    }

    {
        name    solidCells;
        type    cellSet;
        action  delete; //subtract;
        source  cellToCell;
        sourceInfo
        {
            set     cavity;
        }
    }

    {
        name    solid;
        type    cellZoneSet;
        action  new;
        source  setToCellZone;
        sourceInfo
        {
            set     solidCells;     // cellSet
        }
    }
);


// ************************************************************************* //
