/*--------------------------------*- C++ -*----------------------------------*\
|       o        |                                                            |
|    o     o     |  HELYX (R) : Open-source CFD for Enterprise                |
|   o   O   o    |  Version : 4.4.0                                           |
|    o     o     |  ENGYS Ltd. <http://engys.com/>                            |
|       o        |                                                            |
\*---------------------------------------------------------------------------*/
FoamFile
{
    version     2.0;
    format      ascii;
    class       dictionary;
    object      helyxHexMeshDict;
}

// * * * * * * * * * * * * * * * * * * * * * * * * * * * * * * * * * * * * * //

#includeEtc "caseDicts/mesh/generation/helyxHexMeshDict.cfg"

// Which of the steps to run
castellatedMesh true;
snap            true;
addLayers       false;


// Geometry. Definition of all surfaces. All surfaces are of class
// searchableSurface.
// Surfaces are used
// - to specify refinement for any mesh cell intersecting it
// - to specify refinement for any mesh cell inside/outside/near
// - to 'snap' the mesh boundary to the surface
geometry
{
    ami.obj
    {
        type triSurfaceMesh;
        name ami;
    }
    blade1.obj
    {
        type triSurfaceMesh;
        name blade1;
    }
    blade2.obj
    {
        type triSurfaceMesh;
        name blade2;
    }
    inlet.stl
    {
        type triSurfaceMesh;
        name inlet;
    }
    outlet.stl
    {
        type triSurfaceMesh;
        name outlet;
    }
    walls.stl
    {
        type triSurfaceMesh;
        name walls;
    }
};



// Settings for the castellatedMesh generation.
castellatedMeshControls
{
    // Number of buffer layers between different levels.
    // 1 means normal 2:1 refinement restriction, larger means slower
    // refinement.
    nCellsBetweenLevels 5;

    // Explicit feature edge refinement
    // ~~~~~~~~~~~~~~~~~~~~~~~~~~~~~~~~

    // Specifies a level for any cell intersected by its edges.
    // This is a featureEdgeMesh, read from constant/triSurface for now.
    features
    (
    );

    // Surface based refinement
    // ~~~~~~~~~~~~~~~~~~~~~~~~

    // Specifies two levels for every surface. The first is the minimum level,
    // every cell intersecting a surface gets refined up to the minimum level.
    // The second level is the maximum level. Cells that 'see' multiple
    // intersections where the intersections make an
    // angle > resolveFeatureAngle get refined up to the maximum level.

    refinementSurfaces
    {
        ami
        {
            level (1 1);
            cellZone rotating;
            faceZone rotating;
            faceType baffle;
            cellZoneInside insidePoint;
            insidePoint (34 50 0);
        }
        blade1
        {
            level (1 1);
            faceType baffle;
        }
        blade2
        {
            level (1 1);
            faceType baffle;
        }
        cooling
        {
            level (1 1);
            patchInfo
            {
                type patch;
            }
        }
        inlet
        {
            level (1 1);
            patchInfo
            {
                type patch;
            }
        }
        outlet
        {
            level (1 1);
            patchInfo
            {
                type patch;
            }
        }
        walls
        {
            level (1 1);
            patchInfo
            {
                type wall;
                inGroups (wall);
            }
        }
    }

    resolveFeatureAngle 30;


    // Region-wise refinement
    // ~~~~~~~~~~~~~~~~~~~~~~

    // Specifies refinement level for cells in relation to a surface. One of
    // three modes
    // - distance. 'levels' specifies per distance to the surface the
    //   wanted refinement level. The distances need to be specified in
    //   descending order.
    // - inside. 'levels' is only one entry and only the level is used. All
    //   cells inside the surface get refined up to the level. The surface
    //   needs to be closed for this to be possible.
    // - outside. Same but cells outside.

    refinementRegions
    {
    }


    // Mesh selection
    // ~~~~~~~~~~~~~~

    // After refinement patches get added for all refinementSurfaces and
    // all cells intersecting the surfaces get put into these patches. The
    // section reachable from the locationInMesh is kept.
    // NOTE: This point should never be on a face, always inside a cell, even
    // after refinement.
    // This is an outside point locationInMesh (-0.033 -0.033 0.0033);
    locationInMesh (-15 50 0);


    // Whether any faceZones (as specified in the refinementSurfaces)
    // are only on the boundary of corresponding cellZones or also allow
    // free-standing zone faces. Not used if there are no faceZones.
    allowFreeStandingZoneFaces true;
}



// Settings for the snapping.
snapControls
{
    // Per final patch (so not geometry!) the layer information
    featureEdges
    {
    }
}



// Settings for the layer addition.
addLayersControls
{
    // Per final patch (so not geometry!) the layer information
    layers
    {
        "blade."
        {
            nSurfaceLayers 2;
        }
    }
}

// ************************************************************************* //
