/*--------------------------------*- C++ -*----------------------------------*\
|       o        |                                                            |
|    o     o     |  HELYX (R) : Open-source CFD for Enterprise                |
|   o   O   o    |  Version : 4.4.0                                           |
|    o     o     |  ENGYS Ltd. <http://engys.com/>                            |
|       o        |                                                            |
\*---------------------------------------------------------------------------*/
FoamFile
{
    version     2.0;
    format      ascii;
    class       volScalarField;
    object      p;
}
// * * * * * * * * * * * * * * * * * * * * * * * * * * * * * * * * * * * * * //

dimensions      [1 -1 -2 0 0];

internalField   uniform 300e5;

boundaryField
{
    inlet
    {
        type            totalPressure;
        p0              uniform 300e5;
    }

    outlet
    {
        type            fixedValue;
        value           uniform 100e5;
    }

    walls
    {
        type            zeroGradient;
    }

    frontBack
    {
        type            zeroGradient;
    }
}

// ************************************************************************* //
