/*--------------------------------*- C++ -*----------------------------------*\
|       o        |                                                            |
|    o     o     |  HELYX (R) : Open-source CFD for Enterprise                |
|   o   O   o    |  Version : 4.4.0                                           |
|    o     o     |  ENGYS Ltd. <http://engys.com/>                            |
|       o        |                                                            |
\*---------------------------------------------------------------------------*/
FoamFile
{
    version     2.0;
    format      ascii;
    class       dictionary;
    object      postProcessingProperties;
}
// * * * * * * * * * * * * * * * * * * * * * * * * * * * * * * * * * * * * * //

deleteParentOutputDirectory false;

data
{
    callName surfaceElevation;

    removeDuplicate true;
    inputDir surfaceElevation;

    deltaT 0.2;

    // action list is a set of processes on the data
    actionList (interpolateSurfaceElevation write2Ascii removeData);
}

// ************************************************************************* //
