/*--------------------------------*- C++ -*----------------------------------*\
|       o        |                                                            |
|    o     o     |  HELYX (R) : Open-source CFD for Enterprise                |
|   o   O   o    |  Version : 4.4.0                                           |
|    o     o     |  ENGYS Ltd. <http://engys.com/>                            |
|       o        |                                                            |
\*---------------------------------------------------------------------------*/
FoamFile
{
    version     2.0;
    format      ascii;
    class       dictionary;
    object      loggingProperties;
}
// * * * * * * * * * * * * * * * * * * * * * * * * * * * * * * * * * * * * * //

surfaceElevation
{
    type waveGauge;

    pointDistribution lineDistribution;
    N 90;
    linestart (0.00 0.00 0.00);
    lineend   (0.89 0.00 0.00);
    add       (0.00 0.50 0.00);
    axis      y;
    stretch   1.0;
}


// ************************************************************************* //
