/*--------------------------------*- C++ -*----------------------------------*\
|       o        |                                                            |
|    o     o     |  HELYX (R) : Open-source CFD for Enterprise                |
|   o   O   o    |  Version : 4.4.0                                           |
|    o     o     |  ENGYS Ltd. <http://engys.com/>                            |
|       o        |                                                            |
\*---------------------------------------------------------------------------*/
FoamFile
{
    version     2.0;
    format      ascii;
    class       dictionary;
    object      blockMeshDict;
}
// * * * * * * * * * * * * * * * * * * * * * * * * * * * * * * * * * * * * * //

convertToMeters 1;

vertices
(
    (0.06 0.005 0)
    (0.14 0.005 0)
    (0.14 0.03 0)
    (0.06 0.03 0)
    (0.06 0.005 0.01)
    (0.14 0.005 0.01)
    (0.14 0.03 0.01)
    (0.06 0.03 0.01)
);

blocks
(
//    hex (0 1 2 3 4 5 6 7) (200 100 1) simpleGrading (1 1 1)
    hex (0 1 2 3 4 5 6 7) (20 10 1) simpleGrading (1 1 1)
);

edges ();

boundary
(
    fixedWalls
    {
        type wall;
        faces
        (
            (3 7 6 2)
            (0 4 7 3)
            (2 6 5 1)
            (1 5 4 0)
        );
    }
    frontAndBack
    {
        type empty;
        faces
        (
            (0 3 2 1)
            (4 5 6 7)
        );
    }
);

mergePatchPairs ();


// ************************************************************************* //
