/*--------------------------------*- C++ -*----------------------------------*\
|       o        |                                                            |
|    o     o     |  HELYX (R) : Open-source CFD for Enterprise                |
|   o   O   o    |  Version : 4.4.0                                           |
|    o     o     |  ENGYS Ltd. <http://engys.com/>                            |
|       o        |                                                            |
\*---------------------------------------------------------------------------*/
FoamFile
{
    version     2.0;
    format      ascii;
    class       dictionary;
    object      topoSetDict;
}
// * * * * * * * * * * * * * * * * * * * * * * * * * * * * * * * * * * * * * //

actions
(
    // coil
    {
        name    coil;
        type    cellSet;
        action  new;
        source  boxToCell;
        sourceInfo
        {
            box (0.06 0.02 -1) (0.14 0.030 1);
        }
    }
    // stator
    {
        name    stator;
        type    cellSet;
        action  new;
        source  boxToCell;
        sourceInfo
        {
            box (0.06 0.005 -1) (0.14 0.020 1);
        }
    }
);


// ************************************************************************* //
