/*--------------------------------*- C++ -*----------------------------------*\
|       o        |                                                            |
|    o     o     |  HELYX (R) : Open-source CFD for Enterprise                |
|   o   O   o    |  Version : 4.4.0                                           |
|    o     o     |  ENGYS Ltd. <http://engys.com/>                            |
|       o        |                                                            |
\*---------------------------------------------------------------------------*/
FoamFile
{
    version     2.0;
    format      ascii;
    class       dictionary;
    location    "constant";
    object      caseProperties;
}
// * * * * * * * * * * * * * * * * * * * * * * * * * * * * * * * * * * * * * //

initialConditions
{
    p       uniform 100000;
    T       uniform 300;
}


boundaryConditions
{
    fixedTemperature
    {
        category    wall;
        type        thermal;
        patches     (minY);
        options
        {
            heatTransfer fixedTemperature;
        }
        values
        {
            $:initialConditions;
            T       uniform 500;
        }
    }
    thermalWalls
    {
        category    wall;
        type        thermal;
        patches     (minZ maxZ);
        options
        {
            heatTransfer adiabatic;
        }
        values
        {
            $:initialConditions;
        }
    }
    thermalCoupledWalls
    {
        category    wall;
        type        thermal;
        patches     (".*_to_.*");
        options
        {
            heatTransfer thermalCoupled;
        }
        values
        {
            $:initialConditions;
        }
    }
}


// ************************************************************************* //
