/*--------------------------------*- C++ -*----------------------------------*\
|       o          |                                                          |
|    o     o       | HELYX(R) Core: Open-source CFD for Enterprise            |
|   o   O   o      | Version: 4.4.0                                           |
|    o     o       | ENGYS Ltd. <http://engys.com/>                           |
|       o          |                                                          |
\*---------------------------------------------------------------------------*/
FoamFile
{
    version     2.0;
    format      ascii;
    class       dictionary;
    location    "../system";
    object      controlDict;
}
// * * * * * * * * * * * * * * * * * * * * * * * * * * * * * * * * * * * * * //

//DebugSwitches
//{
////    CADReader 1;
////    distributedCADSurface 1;
//}

application     simpleFoam;

startFrom       latestTime;

startTime       0;

stopAt          endTime;

endTime         1500;

deltaT          constant 1;

writeControl    timeStep;

writeInterval   500;

purgeWrite      1;

writeFormat     binary;

writePrecision  10;

writeCompression uncompressed;

timeFormat      general;

timePrecision   6;

graphFormat     raw;

runTimeModifiable yes;

libs            ( "" );

writeEndTime    true;

adjustTimeStep  false;

maxCo           0;

maxAlphaCo      0;

minDeltaT       0;

maxDeltaT       0;

functions
{}

// ************************************************************************* //
