FoamFile
{
    version     2.0;
    format      ascii;
    class       dictionary;
    location    "system";
    object      fvSchemes;
}
// * * * * * * * * * * * * * * * * * * * * * * * * * * * * * * * * * * * * * //

ddtSchemes{}

gradSchemes{}

divSchemes{}

laplacianSchemes{}

interpolationSchemes{}

snGradSchemes{}

wallDist {method meshWave;}
    
// ************************************************************************* //
