/*--------------------------------*- C++ -*----------------------------------*\
|       o          |                                                          |
|    o     o       | HELYX®: Open-source CFD for Enterprise                   |
|   o   O   o      | Version: 4.4.0                                           |
|    o     o       | ENGYS Ltd. <http://engys.com/>                           |
|       o          |                                                          |
\*---------------------------------------------------------------------------*/
FoamFile
{
    version     2.0;
    format      ascii;
    class       dictionary;
    location    "../constant";
    object      transportProperties;
}
// * * * * * * * * * * * * * * * * * * * * * * * * * * * * * * * * * * * * * //

transportModel  Newtonian;

NewtonianCoeffs
{
}

rho             [ 1 -3 0 0 0 0 0 ] 1.205;

nu              [ 0 2 -1 0 0 0 0 ] 1.5881328e-05;

Cp              [ 0 2 -2 -1 0 0 0 ] 1006;

Prt             [ 0 0 0 0 0 0 0 ] 0.85;

lambda          [ 1 1 -3 -1 0 0 0 ] 0.024;

kappa           [ 1 1 -3 -1 0 0 0 ] 0.024;


// ************************************************************************* //
