/*--------------------------------*- C++ -*----------------------------------*\
|       o          |                                                          |
|    o     o       | HELYX(R): Open-source CFD for Enterprise                 |
|   o   O   o      | Version: 4.4.0                                           |
|    o     o       | Engys Ltd. http://www.engys.com                          |
|       o          |                                                          |
\*---------------------------------------------------------------------------*/
FoamFile
{
    version 2.0;
    format ascii;
    class dictionary;
    location system;
    object meshInfoDict;
}
    points 17940;
    cells 14182;
    faces 46104;
    internalFaces 40876;
    boundaryPatches 5;
    faceZones 7;
    cellZones 5;
    domainVolume 1.633739862E-5;
    hexahedra 13556;
    prisms 0;
    wedges 16;
    pyramids 0;
    tetWedges 0;
    tetrahedra 0;
    polyhedra 610;
    boundingBox ( -0.009021581363 -0.008999999613 5.000000237E-4 ) ( 0.009021519985 0.008999999613 0.06500161548 );
    patchesInfo
    {
        battery1_to_air
        {
            faces 3264;
            points 3529;
            area 0.003759504832;
            normal ( 2.148436561E-7 -6.348502541E-12 0.03160121376 );
        }
        battery1_to_busbar
        {
            faces 344;
            points 383;
            area 1.350066345E-4;
            normal ( -5.982711629E-6 1.767891898E-10 0.999999987 );
        }
        enclosure
        {
            faces 164;
            points 185;
            area 2.538115486E-4;
            normal ( 0.0 0.0 -1.0 );
        }
    }
    cellZonesInfo
    {
        battery1
        {
            cells 14182;
            volume 1.633739862E-5;
            centroid ( 2.122950614E-7 -5.781603313E-11 0.03275045357 );
        }
        battery2
        {
            cells 0;
            volume 0.0;
            centroid ( 0.0 0.0 0.0 );
        }
        battery3
        {
            cells 0;
            volume 0.0;
            centroid ( 0.0 0.0 0.0 );
        }
        busbar
        {
            cells 0;
            volume 0.0;
            centroid ( 0.0 0.0 0.0 );
        }
        air
        {
            cells 0;
            volume 0.0;
            centroid ( 0.0 0.0 0.0 );
        }
    }
    faceZonesInfo
    {
        battery2_to_busbar
        {
            faces 0;
            area 0.0;
            centroid ( 0.0 0.0 0.0 );
        }
        air_to_battery1
        {
            faces 3264;
            area 0.003759504832;
            centroid ( -6.257117589E-5 -2.209442577E-11 0.03376667183 );
        }
        air_to_busbar
        {
            faces 0;
            area 0.0;
            centroid ( 0.0 0.0 0.0 );
        }
        battery1_to_busbar
        {
            faces 344;
            area 1.350066345E-4;
            centroid ( 0.001757735768 -7.35573904E-12 0.06499999995 );
        }
        air_to_battery2
        {
            faces 0;
            area 0.0;
            centroid ( 0.0 0.0 0.0 );
        }
        air_to_battery3
        {
            faces 0;
            area 0.0;
            centroid ( 0.0 0.0 0.0 );
        }
        battery3_to_busbar
        {
            faces 0;
            area 0.0;
            centroid ( 0.0 0.0 0.0 );
        }
    }
    meshingInfo
    {
    }
