/*--------------------------------*- C++ -*----------------------------------*\
|       o        |                                                            |
|    o     o     |  HELYX (R) : Open-source CFD for Enterprise                |
|   o   O   o    |  Version : 4.4.0                                           |
|    o     o     |  ENGYS Ltd. <http://engys.com/>                            |
|       o        |                                                            |
\*---------------------------------------------------------------------------*/
FoamFile
{
    version         2.0;
    format          ascii;

    root            "";
    case            "";
    instance        "";
    local           "";

    class           dictionary;
    object          blockMeshDict;
}

// * * * * * * * * * * * * * * * * * * * * * * * * * * * * * * * * * * * * * //

convertToMeters 1;

vertices        
(
    (  0   0 0)
    (100   0 0)
    (100 100 0)
    (  0 100 0)

    (  0   0 1)
    (100   0 1)
    (100 100 1)
    (  0 100 1)
);

blocks          
(
    hex (0 1 2 3 4 5 6 7) (100 100 2) simpleGrading (1 1 1)
);

edges           
(
);

patches         
(

);

mergePatchPairs
(
);

// ************************************************************************* //
