/*--------------------------------*- C++ -*----------------------------------*\
|       o        |                                                            |
|    o     o     |  HELYX (R) : Open-source CFD for Enterprise                |
|   o   O   o    |  Version : 4.4.0                                           |
|    o     o     |  ENGYS Ltd. <http://engys.com/>                            |
|       o        |                                                            |
\*---------------------------------------------------------------------------*/
FoamFile
{
    version     2.0;
    format      ascii;
    class       volScalarField;
    location    "0";
    object      Su;
}
// * * * * * * * * * * * * * * * * * * * * * * * * * * * * * * * * * * * * * //

dimensions      [0 1 -1 0 0 0 0];

internalField   uniform 0.5;

boundaryField
{
    outer
    {
        type                uniformInletOutlet;
        uniformInletValue   0.5;
        value               uniform 0.5;
    }
    ground
    {
        type            zeroGradient;
    }
    blockedFaces
    {
        type            zeroGradient;
    }
    baffleWall
    {
        type            zeroGradient;
    }
    baffleCyclic_half0
    {
        type            cyclic;
    }
    baffleCyclic_half1
    {
        type            cyclic;
    }
}


// ************************************************************************* //
