/*--------------------------------*- C++ -*----------------------------------*\
|       o        |                                                            |
|    o     o     |  HELYX (R) : Open-source CFD for Enterprise                |
|   o   O   o    |  Version : 4.4.0                                           |
|    o     o     |  ENGYS Ltd. <http://engys.com/>                            |
|       o        |                                                            |
\*---------------------------------------------------------------------------*/
FoamFile
{
    version     2.0;
    format      ascii;
    class       dictionary;
    object      setFieldsDict;
}
// * * * * * * * * * * * * * * * * * * * * * * * * * * * * * * * * * * * * * //

defaultFieldValues
(
    volScalarFieldValue h0 0
    volScalarFieldValue h 0.01
    volVectorFieldValue hU (0.001 0 0)
);

regions
(
    boxToCell
    {
        box (0.45 0.45 0) (0.55 0.55 0.1);

        fieldValues
        (
            volScalarFieldValue h0 0.001
            volScalarFieldValue h  0.009
            volVectorFieldValue hU  (0.0009 0 0)
        );
    }
);

// ************************************************************************* //
