/*--------------------------------*- C++ -*----------------------------------*\
|       o          |                                                          |
|    o     o       | HELYX                                                  |
|   o   O   o      | Version: 4.4.0                                           |
|    o     o       | Web:     http://www.engys.com                            |
|       o          |                                                          |
\*---------------------------------------------------------------------------*/
FoamFile
{
    version 2.0;
    format ascii;
    class dictionary;
    location system;
    object helyxHexMeshDict;
}

    castellatedMesh true;
    snap true;
    addLayers true;
    autoBlockMesh false;
    blockData (0.01 0);
    crackDetection false;
    crackTol 0.05;
    finalDecomposition ptscotch;
    geometry
    {
        /*box1
        {
            type searchableBox;
            min ( -10.0 -310.0 -10.0 );
            max ( 1610.0 310.0 240.0 );
        }*/

    }

    castellatedMeshControls
    {
        features
        (
        );
        refinementSurfaces
        {
        }

        refinementRegions
        {
            /*box1
            {
                mode inside;
                levels (( 1E5 1 ));
            }*/

        }

        locationInMesh ( 100.0 0.0 50.0 );
        maxLocalCells 100000000;
        maxGlobalCells 100000000;
        minRefinementCells 100;
        nCellsBetweenLevels 2;
        resolveFeatureAngle -60.;
        featureRefineAngle 20.;
        refineSurfaceBoundary false;
        refineFeatureEdgesOnly false;
        minBaffleAngle -60.;
        curvatureRefineAngle -60.;
        allowFreeStandingZoneFaces false;
        balanceThenRefine true;
        maxLoadUnbalance 0.10;
        splitCells false;
        minZoneRegionSize 0;
        wrapper
        {
            wrap false;
            volSources true;
            volDistance 1.0;
            meshInMM false;
            maxIter 200;
            writeFields false;
            invert false;
            sigma 3.0;
            cutoff 1000;
        }

    }

    snapControls
    {
        featureEdges
        {
        }

        nOuterIter 1;
        nPreFeatureIter 0;
        nSolveIter 10;
        nFeatureIter 60;
        globalFeatureEdges true;
        globalRegionSnap false;
        nSmoothPatch 2;
        tolerance 4.0;
        nRelaxIter 5;
        zoneFeatureSnapping true;
        directFeatureSnapping true;
        regionFeatureLines false;
        geometryFeatureLines true;
        collapseTol 0.25;
        enlargeStencil true;
        featureSnapChecks true;
        smoothSnappedSurface true;
        splitDegenerateCells true;
        explicitFeatureSnap true;
        implicitFeatureSnap false;
        nSliverSmooths 10;
    }

    addLayersControls
    {
        layers
        {
            ground
            {
                nSurfaceLayers 40;
                expansionRatio 1.05;
                finalLayerThickness 0.5;
            }

        }

        relativeSizes true;
        expansionRatio 1.25;
        finalLayerThickness 0.4;
        minThickness 0.2;
        featureAngleMerge 45;
        featureAngleTerminate 80;
        nRelaxIter 5;
        nRelaxedIter 1000;
        maxFaceThicknessRatio 2.0;
        maxThicknessToMedialRatio 0.3;
        minMedialAxisAngle 90;
        noErrors false;
        maxLayerIter 30;
        projectGrownUp 0.0;
        preBalance false;
        growConvexEdge true;
        growConcaveEdge true;
        growZoneLayers false;
        growUpPatches true;
        nSmoothSurfaceNormals 6;
        nSmoothNormals 3;
        maxCellDistortion 50;
        maxProjectionDistance 1e15;
        layerRecovery 1;
        writeVTK true;
    }

    meshQualityControls
    {
        nVolSmoothIter 8;
        maxNonOrtho 70;
        maxBoundarySkewness 20;
        maxInternalSkewness 6;
        maxConcave 80;
        minFlatness 0.5;
        minVol 1e-14;
        minTetQuality -1e30;
        minArea 1e-13;
        minTwist 0.05;
        minDeterminant 0.0001;
        minFaceWeight 0.08;
        minVolRatio 0.02;
        minTriangleTwist -0.99;
        minVolCollapseRatio -1;
        minInternalWarpage -1;
        maxBoundaryWarpage -1;
        faceFaceCells true;
        minSnapRelativeVolume -1;
        nSmoothScale 10;
        smoothAlignedEdges false;
        errorReduction 0.75;
        minSnapRelativeTetVolume -1;
        maxGaussGreenCentroid -1;
        baffleAllPointsBoundary false;
    }

    debug 0;
    mergeTolerance 1E-6;
