/*--------------------------------*- C++ -*----------------------------------*\
|       o        |                                                            |
|    o     o     |  HELYX (R) : Open-source CFD for Enterprise                |
|   o   O   o    |  Version : 4.4.0                                           |
|    o     o     |  ENGYS Ltd. <http://engys.com/>                            |
|       o        |                                                            |
\*---------------------------------------------------------------------------*/
FoamFile
{
    version     2.0;
    format      ascii;
    class       dictionary;
    location    "constant";
    object      phaseProperties;
}
// * * * * * * * * * * * * * * * * * * * * * * * * * * * * * * * * * * * * * //

type thermalPhaseChangeTwoPhaseSystem;

phases (steam water);

volatile    "water";

massTransfer on;

steam
{
    type            multicomponentPhaseModel;
    diameterModel   isothermal;
    isothermalCoeffs
    {
        d0              3e-3;
        p0              1e5;
    }
    Sc              0.7;

    residualAlpha   1e-3;
}

water
{
    type            multicomponentPhaseModel;
    diameterModel   constant;
    constantCoeffs
    {
        d               1e-4;
    }
    Sc              0.7;

    residualAlpha   1e-3;
}

blending
{
    default
    {
        type            none;
        continuousPhase water;
    }
}

surfaceTension
(
    (steam and water)
    {
        type            constant;
        sigma           0.07;
    }
);

saturationModel
{
    type constant;
    pSat 1e5;
    Tsat 372.76;
};


aspectRatio
(
    (steam in water)
    {
        type            constant;
        E0              1.0;
    }
);

drag
(
    (steam in water)
    {
        type            SchillerNaumann;
        residualRe      1e-3;
        swarmCorrection
        {
            type        none;
        }
    }
);

virtualMass
(
    (steam in water)
    {
        type            constantCoefficient;
        Cvm             0.5;
    }
);

interfaceComposition
();

heatTransfer
(
    (steam in water)
    {
        type spherical;
        residualAlpha 1e-4;
    }
);

heatTransfer.steam
(
    (steam in water)
    {
        type spherical;
        residualAlpha 1e-4;
    }
);

heatTransfer.water
(
    (steam in water)
    {
        type RanzMarshall;
        residualAlpha 1e-4;
    }
);

massTransfer.steam
();

massTransfer.water
();

lift
();

wallLubrication
();

turbulentDispersion
();

// Minimum allowable pressure
pMin            10000;


// ************************************************************************* //
