/*--------------------------------*- C++ -*----------------------------------*\
|       o        |                                                            |
|    o     o     |  HELYX (R) : Open-source CFD for Enterprise                |
|   o   O   o    |  Version : 4.4.0                                           |
|    o     o     |  ENGYS Ltd. <http://engys.com/>                            |
|       o        |                                                            |
\*---------------------------------------------------------------------------*/
FoamFile
{
    version     2.0;
    format      ascii;
    class       dictionary;
    object      helyxHexMeshDict;
}
// * * * * * * * * * * * * * * * * * * * * * * * * * * * * * * * * * * * * * //

#includeEtc "caseDicts/mesh/generation/helyxHexMeshDict.cfg"

meshAlgorithm dual;

autoBlockMesh false;

geometry
{
    Eppler387body.stl
    {
        type triSurfaceMesh;
        name Eppler387body;
    }
}

castellatedMeshControls
{
    features ();
    refinementSurfaces
    {
        Eppler387body
        {
            curvature 5;
            level ( 1 2 );
            featureRefineAngle 5;
            featureLevels ( ( 0.05 4 ) (0.1 3) (0.2 2) );
        }
    }
    refinementRegions
    {
        Eppler387body
        {
            mode distance;
            levels ( ( 0.2 1 ) );
        }
    }
    locationsInMesh
    (
        (
            ( -0.5 0 0.5 ) none
        )
    );
}

addLayersControls
{
    layers
    {
        inlet
        {
            nSurfaceLayers 0;
            expansionRatio 1.25;
            grownUp true;
            reSnap false;
        }
        outlet
        {
            nSurfaceLayers 0;
            expansionRatio 1.25;
            grownUp true;
            reSnap false;
        }
        bottom
        {
            nSurfaceLayers 6;
            expansionRatio 1.25;
            grownUp automatic;
        }
        top
        {
            nSurfaceLayers 6;
            expansionRatio 1.25;
            grownUp automatic;
        }
        ffminz
        {
            nSurfaceLayers 0;
            expansionRatio 1.25;
            grownUp true;
            reSnap false;
        }
        ffmaxz
        {
            nSurfaceLayers 0;
            expansionRatio 1.25;
            grownUp true;
            reSnap false;
        }
        "Eppler387body.*"
        {
            nSurfaceLayers 6;
            fch 0.0003;
            grownUp automatic;
        }
    }
    writeVTK false;
}

// ************************************************************************* //
