/*--------------------------------*- C++ -*----------------------------------*\
|       o        |                                                            |
|    o     o     |  HELYX (R) : Open-source CFD for Enterprise                |
|   o   O   o    |  Version : 4.4.0                                           |
|    o     o     |  ENGYS Ltd. <http://engys.com/>                            |
|       o        |                                                            |
\*---------------------------------------------------------------------------*/
FoamFile
{
    version     2.0;
    format      ascii;
    class       volVectorField;
    location    "0/wallFilmRegion";
    object      U;
}
// * * * * * * * * * * * * * * * * * * * * * * * * * * * * * * * * * * * * * //

dimensions      [0 1 -1 0 0 0 0];

internalField   uniform (0 0 0);

boundaryField
{
    wallFilmFaces_top
    {
        type            slip;
    }

    region0_to_wallFilmRegion_wallFilmFaces
    {
        type            noSlip;
    }

    side1
    {
        type            noSlip;
    }

    side2
    {
        type            noSlip;
    }

    side3
    {
        type            noSlip;
    }

    side4
    {
        type            noSlip;
    }
}


// ************************************************************************* //
