/*--------------------------------*- C++ -*----------------------------------*\
|       o        |                                                            |
|    o     o     |  HELYX (R) : Open-source CFD for Enterprise                |
|   o   O   o    |  Version : 4.4.0                                           |
|    o     o     |  ENGYS Ltd. <http://engys.com/>                            |
|       o        |                                                            |
\*---------------------------------------------------------------------------*/
FoamFile
{
    version     2.0;
    format      ascii;
    class       dictionary;
    object      controlDict;
}
// * * * * * * * * * * * * * * * * * * * * * * * * * * * * * * * * * * * * * //

application     helyxSolve;

startFrom       latestTime;

startTime       0;

stopAt          endTime;

endTime         2e-05;

deltaT          1e-08;

writeControl    adjustableRunTime;

writeInterval   5e-07;

purgeWrite      0;

writeFormat     ascii;

writePrecision  10;

writeCompression uncompressed;

timeFormat      general;

timePrecision   6;

graphFormat     raw;

runTimeModifiable true;

libs            1 ( "" );

adjustTimeStep  yes;

maxCo           0.2;

maxDeltaT       1;

functions
{
    Ma
    {
        libs            ( "libfieldFunctionObjects.so" );
        type            MachNo;
        executeControl  writeTime;
        writeControl    writeTime;
    }
    VR
    {
        functionObjectLibs ( "libreport.so" );
        logToFile       yes;
        fields          ( U p T );
        executeControl  timeStep;
        type            volumeReport;
    }
}


// ************************************************************************* //
