/*--------------------------------*- C++ -*----------------------------------*\
|       o        |                                                            |
|    o     o     |  HELYX (R) : Open-source CFD for Enterprise                |
|   o   O   o    |  Version : 4.4.0                                           |
|    o     o     |  ENGYS Ltd. <http://engys.com/>                            |
|       o        |                                                            |
\*---------------------------------------------------------------------------*/
FoamFile
{
    version     2.0;
    format      ascii;
    class       dictionary;
    object      changeDictionaryDict;
}
// * * * * * * * * * * * * * * * * * * * * * * * * * * * * * * * * * * * * * //

boundary
{
    ".*"
    {
        type            mappedPatch;
    }
}

T
{
    internalField   uniform 300;

    boundaryField
    {
        ".*"
        {
            type            zeroGradient;
        }

        minY
        {
            type            fixedValue;
            value           uniform 500;
        }
    }
}

rho
{
    internalField   uniform 8000;

    boundaryField
    {
        ".*"
        {
            type            zeroGradient;
        }

    }
}

K
{
    internalField   uniform 80;

    boundaryField
    {
        ".*"
        {
            type            zeroGradient;
        }

    }
}

cp
{
    internalField   uniform 450;

    boundaryField
    {
        ".*"
        {
            type            zeroGradient;
        }

    }
}

// ************************************************************************* //
