FoamFile
{
    version         2.0;
    format          ascii;

    root            "";
    case            "";
    instance        "";
    local           "";

    class           dictionary;
    object          t_distribution;
}

// * * * * * * * * * * * * * * * * * * * * * * * * * * * * * * * * * * * * * //
outOfBounds clap;

distribution table
(
    (
        0
        (
            (0 0)
            (0 0)
        )
    )
    (
        0.5
        (
            (1	1)
            (2	0.816)
            (3	0.765)
            (4	0.741)
            (5	0.727)
            (6	0.718)
            (7	0.711)
            (8	0.706)
            (9	0.703)
            (10	0.7)
            (11	0.697)
            (12	0.695)
            (13	0.694)
            (14	0.692)
            (15	0.691)
            (16	0.69)
            (17	0.689)
            (18	0.688)
            (19	0.688)
            (20	0.687)
            (21	0.686)
            (22	0.686)
            (23	0.685)
            (24	0.685)
            (25	0.684)
            (26	0.684)
            (27	0.684)
            (28	0.683)
            (29	0.683)
            (30	0.683)
            (40	0.681)
            (60	0.679)
            (80	0.678)
            (100	0.677)
            (1000	0.675)
            (100000	0.675)
        )
    )
    (
        0.6
        (
            (1	1.376)
            (2	1.061)
            (3	0.978)
            (4	0.941)
            (5	0.92)
            (6	0.906)
            (7	0.896)
            (8	0.889)
            (9	0.883)
            (10	0.879)
            (11	0.876)
            (12	0.873)
            (13	0.87)
            (14	0.868)
            (15	0.866)
            (16	0.865)
            (17	0.863)
            (18	0.862)
            (19	0.861)
            (20	0.86)
            (21	0.859)
            (22	0.858)
            (23	0.858)
            (24	0.857)
            (25	0.856)
            (26	0.856)
            (27	0.855)
            (28	0.855)
            (29	0.854)
            (30	0.854)
            (40	0.851)
            (60	0.848)
            (80	0.846)
            (100	0.845)
            (1000	0.842)
            (100000	0.842)
        )
    )
    (
        0.7
        (
            (1	1.963)
            (2	1.386)
            (3	1.25)
            (4	1.19)
            (5	1.156)
            (6	1.134)
            (7	1.119)
            (8	1.108)
            (9	1.1)
            (10	1.093)
            (11	1.088)
            (12	1.083)
            (13	1.079)
            (14	1.076)
            (15	1.074)
            (16	1.071)
            (17	1.069)
            (18	1.067)
            (19	1.066)
            (20	1.064)
            (21	1.063)
            (22	1.061)
            (23	1.06)
            (24	1.059)
            (25	1.058)
            (26	1.058)
            (27	1.057)
            (28	1.056)
            (29	1.055)
            (30	1.055)
            (40	1.05)
            (60	1.045)
            (80	1.043)
            (100	1.042)
            (1000	1.037)
            (100000	1.037)
        )
    )
    (
        0.8
        (
            (1	3.078)
            (2	1.886)
            (3	1.638)
            (4	1.533)
            (5	1.476)
            (6	1.44)
            (7	1.415)
            (8	1.397)
            (9	1.383)
            (10	1.372)
            (11	1.363)
            (12	1.356)
            (13	1.35)
            (14	1.345)
            (15	1.341)
            (16	1.337)
            (17	1.333)
            (18	1.33)
            (19	1.328)
            (20	1.325)
            (21	1.323)
            (22	1.321)
            (23	1.319)
            (24	1.318)
            (25	1.316)
            (26	1.315)
            (27	1.314)
            (28	1.313)
            (29	1.311)
            (30	1.31)
            (40	1.303)
            (60	1.296)
            (80	1.292)
            (100	1.29)
            (1000	1.282)
            (100000	1.282)
        )
    )
    (
        0.9
        (
            (1	6.314)
            (2	2.92)
            (3	2.353)
            (4	2.132)
            (5	2.015)
            (6	1.943)
            (7	1.895)
            (8	1.86)
            (9	1.833)
            (10	1.812)
            (11	1.796)
            (12	1.782)
            (13	1.771)
            (14	1.761)
            (15	1.753)
            (16	1.746)
            (17	1.74)
            (18	1.734)
            (19	1.729)
            (20	1.725)
            (21	1.721)
            (22	1.717)
            (23	1.714)
            (24	1.711)
            (25	1.708)
            (26	1.706)
            (27	1.703)
            (28	1.701)
            (29	1.699)
            (30	1.697)
            (40	1.684)
            (60	1.671)
            (80	1.664)
            (100	1.66)
            (1000	1.646)
            (100000	1.646)
        )
    )
    (
        0.95
        (
            (1	12.71)
            (2	4.303)
            (3	3.182)
            (4	2.776)
            (5	2.571)
            (6	2.447)
            (7	2.365)
            (8	2.306)
            (9	2.262)
            (10	2.228)
            (11	2.201)
            (12	2.179)
            (13	2.16)
            (14	2.145)
            (15	2.131)
            (16	2.12)
            (17	2.11)
            (18	2.101)
            (19	2.093)
            (20	2.086)
            (21	2.08)
            (22	2.074)
            (23	2.069)
            (24	2.064)
            (25	2.06)
            (26	2.056)
            (27	2.052)
            (28	2.048)
            (29	2.045)
            (30	2.042)
            (40	2.021)
            (60	2)
            (80	1.99)
            (100	1.984)
            (1000	1.962)
            (100000	1.962)
        )
    )
    (
        0.98
        (
            (1	31.82)
            (2	6.965)
            (3	4.541)
            (4	3.747)
            (5	3.365)
            (6	3.143)
            (7	2.998)
            (8	2.896)
            (9	2.821)
            (10	2.764)
            (11	2.718)
            (12	2.681)
            (13	2.65)
            (14	2.624)
            (15	2.602)
            (16	2.583)
            (17	2.567)
            (18	2.552)
            (19	2.539)
            (20	2.528)
            (21	2.518)
            (22	2.508)
            (23	2.5)
            (24	2.492)
            (25	2.485)
            (26	2.479)
            (27	2.473)
            (28	2.467)
            (29	2.462)
            (30	2.457)
            (40	2.423)
            (60	2.39)
            (80	2.374)
            (100	2.364)
            (1000	2.33)
            (100000	2.33)
        )
    )
    (
        0.99
        (
            (1	63.66)
            (2	9.925)
            (3	5.841)
            (4	4.604)
            (5	4.032)
            (6	3.707)
            (7	3.499)
            (8	3.355)
            (9	3.25)
            (10	3.169)
            (11	3.106)
            (12	3.055)
            (13	3.012)
            (14	2.977)
            (15	2.947)
            (16	2.921)
            (17	2.898)
            (18	2.878)
            (19	2.861)
            (20	2.845)
            (21	2.831)
            (22	2.819)
            (23	2.807)
            (24	2.797)
            (25	2.787)
            (26	2.779)
            (27	2.771)
            (28	2.763)
            (29	2.756)
            (30	2.75)
            (40	2.704)
            (60	2.66)
            (80	2.639)
            (100	2.626)
            (1000	2.581)
            (100000	2.581)
        )
    )
    (
        0.998
        (
            (1	318.31)
            (2	22.327)
            (3	10.215)
            (4	7.173)
            (5	5.893)
            (6	5.208)
            (7	4.785)
            (8	4.501)
            (9	4.297)
            (10	4.144)
            (11	4.025)
            (12	3.93)
            (13	3.852)
            (14	3.787)
            (15	3.733)
            (16	3.686)
            (17	3.646)
            (18	3.61)
            (19	3.579)
            (20	3.552)
            (21	3.527)
            (22	3.505)
            (23	3.485)
            (24	3.467)
            (25	3.45)
            (26	3.435)
            (27	3.421)
            (28	3.408)
            (29	3.396)
            (30	3.385)
            (40	3.307)
            (60	3.232)
            (80	3.195)
            (100	3.174)
            (1000	3.098)
            (100000	3.098)
        )
    )
    (
        0.999
        (
            (1	636.62)
            (2	31.599)
            (3	12.924)
            (4	8.61)
            (5	6.869)
            (6	5.959)
            (7	5.408)
            (8	5.041)
            (9	4.781)
            (10	4.587)
            (11	4.437)
            (12	4.318)
            (13	4.221)
            (14	4.14)
            (15	4.073)
            (16	4.015)
            (17	3.965)
            (18	3.922)
            (19	3.883)
            (20	3.85)
            (21	3.819)
            (22	3.792)
            (23	3.768)
            (24	3.745)
            (25	3.725)
            (26	3.707)
            (27	3.69)
            (28	3.674)
            (29	3.659)
            (30	3.646)
            (40	3.551)
            (60	3.46)
            (80	3.416)
            (100	3.39)
            (1000	3.3)
            (100000	3.3)
        )
    )
);

// ************************************************************************* //
