/*--------------------------------*- C++ -*----------------------------------*\
|       o        |                                                            |
|    o     o     |  HELYX (R) : Open-source CFD for Enterprise                |
|   o   O   o    |  Version : 4.4.0                                           |
|    o     o     |  ENGYS Ltd. <http://engys.com/>                            |
|       o        |                                                            |
\*---------------------------------------------------------------------------*/
FoamFile
{
    version     2.0;
    format      ascii;
    class       dictionary;
    object      createBafflesDict;
}
// * * * * * * * * * * * * * * * * * * * * * * * * * * * * * * * * * * * * * //

// Whether to convert internal faces only (so leave boundary faces intact).
// This is only relevant if your face selection type can pick up boundary
// faces.
internalFacesOnly true;


// Baffles to create.
baffles
{
    baffleFaces
    {
        //- Use predefined faceZone to select faces and orientation.
        type        faceZone;
        zoneName    rotorBlades;


        patches
        {
            master
            {
                //- Master side patch
                name            blades;
                type            patch;
            }
            slave
            {
                //- Slave side patch
                name            blades;
                type            patch;
            }
        }
    }
}


// ************************************************************************* //
