/*--------------------------------*- C++ -*----------------------------------*\
|       o        |                                                            |
|    o     o     |  HELYX (R) : Open-source CFD for Enterprise                |
|   o   O   o    |  Version : 4.4.0                                           |
|    o     o     |  ENGYS Ltd. <http://engys.com/>                            |
|       o        |                                                            |
\*---------------------------------------------------------------------------*/
FoamFile
{
    version     2.0;
    format      ascii;
    class       dictionary;
    object      blockMeshDict;
}
// * * * * * * * * * * * * * * * * * * * * * * * * * * * * * * * * * * * * * //

convertToMeters 1;

vertices
(
    ( -0.2640000081062317 -0.2640000081062317 -0.2640000081062317)
    ( 0.26599999189376833 -0.2640000081062317 -0.2640000081062317)
    ( 0.26599999189376833 0.26599999189376833 -0.2640000081062317)
    ( -0.2640000081062317 0.26599999189376833 -0.2640000081062317)
    ( -0.2640000081062317 -0.2640000081062317 0.26599999189376833)
    ( 0.26599999189376833 -0.2640000081062317 0.26599999189376833)
    ( 0.26599999189376833 0.26599999189376833 0.26599999189376833)
    ( -0.2640000081062317 0.26599999189376833 0.26599999189376833)
);

blocks
(
    hex (0 1 2 3 4 5 6 7) (53 53 53) simpleGrading (1 1 1)
);

edges ();

patches
(
    wall ffminx ( (0 4 7 3) )
    wall ffmaxx ( (1 2 6 5) )
    wall ffminy ( (0 1 5 4) )
    wall ffmaxy ( (3 7 6 2) )
    wall ffminz ( (0 3 2 1) )
    wall ffmaxz ( (4 5 6 7) )
);

mergePatchPairs ();

spacing 0.01;


// ************************************************************************* //
