/*--------------------------------*- C++ -*----------------------------------*\
|       o        |                                                            |
|    o     o     |  HELYX (R) : Open-source CFD for Enterprise                |
|   o   O   o    |  Version : 4.4.0                                           |
|    o     o     |  ENGYS Ltd. <http://engys.com/>                            |
|       o        |                                                            |
\*---------------------------------------------------------------------------*/
FoamFile
{
    version     2.0;
    format      ascii;
    class       dictionary;
    object      postProcessingDict;
}
// * * * * * * * * * * * * * * * * * * * * * * * * * * * * * * * * * * * * * //

processorField
{
    // Type of functionObject
    type            processorField;

    // Where to load it from (if not already in solver)
    libs            ("libfieldFunctionObjects.so");

    // Function object enabled flag
    enabled         true;

    // When to output the average fields
    writeControl    timeStep;
}

// ************************************************************************* //
