/*--------------------------------*- C++ -*----------------------------------*\
|       o          |                                                          |
|    o     o       | HELYX                                                    |
|   o   O   o      | Version: 4.4.0                                           |
|    o     o       | Web:     http://www.engys.com                            |
|       o          |                                                          |
\*---------------------------------------------------------------------------*/
FoamFile
{
    version 2.0;
    format ascii;
    class dictionary;
    location system;
    object blockMeshDict;
}
    convertToMeters 1;
    vertices
    (
        ( -15.0 36.708060149496404 -0.04999999999999982 )
        ( 30.0 36.708060149496404 -0.04999999999999982 )
        ( 30.0 63.46605620301067 -0.04999999999999982 )
        ( -15.0 63.46605620301067 -0.04999999999999982 )
        ( -15.0 36.708060149496404 15.0 )
        ( 30.0 36.708060149496404 15.0 )
        ( 30.0 63.46605620301067 15.0 )
        ( -15.0 63.46605620301067 15.0 )
    );
    blocks
    (
        hex ( 0 1 2 3 4 5 6 7 ) ( 45 25 15 ) simpleGrading ( 1 1 1 )
    );
    edges ( );
    patches
    (
        wall inlet ( ( 0 4 7 3 ) )
        wall outlet ( ( 1 2 6 5 ) )
        wall side1 ( ( 0 1 5 4 ) )
        wall side2 ( ( 3 7 6 2 ) )
        wall ground ( ( 0 3 2 1 ) )
        wall top ( ( 4 5 6 7 ) )
    );
    mergePatchPairs ( );
