/*--------------------------------*- C++ -*----------------------------------*\
|       o          |                                                          |
|    o     o       | HELYX                                                    |
|   o   O   o      | Version: 4.4.0                                           |
|    o     o       | Web:     http://www.engys.com                            |
|       o          |                                                          |
\*---------------------------------------------------------------------------*/
FoamFile
{
    version 2.0;
    format ascii;
    class dictionary;
    location system;
    object decomposeParDict;
}
    numberOfSubdomains 8;
    method hierarchical;
    distributed false;
    hierarchicalCoeffs
    {
        n ( 2 2 2 );
        order yxz;
    }
