/*--------------------------------*- C++ -*----------------------------------*\
|       o        |                                                            |
|    o     o     |  HELYX (R) : Open-source CFD for Enterprise                |
|   o   O   o    |  Version : 4.4.0                                           |
|    o     o     |  ENGYS Ltd. <http://engys.com/>                            |
|       o        |                                                            |
\*---------------------------------------------------------------------------*/
FoamFile
{
    version     2.0;
    format      ascii;
    class       dictionary;
    object      blockMeshDict;
}
// * * * * * * * * * * * * * * * * * * * * * * * * * * * * * * * * * * * * * //

convertToMeters 1;

vertices
(
    ( -9.5 0 0 )
    ( -0.5 0 0 )
    ( 0.5 0 0 )
    ( 25.5 0 0 )
    ( -9.5 0.428 0 )
    ( -0.5 0.428 0 )
    ( 0.5 0.428 0 )
    ( 25.5 0.428 0 )
    ( -9.5 0 0.5 )
    ( -0.5 0 0.5 )
    ( 0.5 0 0.5 )
    ( 25.5 0 0.5 )
    ( -9.5 0.428 0.5 )
    ( -0.5 0.428 0.5 )
    ( 0.5 0.428 0.5 )
    ( 25.5 0.428 0.5 )
    ( -9.5 0 1.5 )
    ( -0.5 0 1.5 )
    ( 0.5 0 1.5 )
    ( 25.5 0 1.5 )
    ( -9.5 0.428 1.5 )
    ( -0.5 0.428 1.5 )
    ( 0.5 0.428 1.5 )
    ( 25.5 0.428 1.5 )
    ( -9.5 0 11.5 )
    ( -0.5 0 11.5 )
    ( 0.5 0 11.5 )
    ( 25.5 0 11.5 )
    ( -9.5 0.428 11.5 )
    ( -0.5 0.428 11.5 )
    ( 0.5 0.428 11.5 )
    ( 25.5 0.428 11.5 )
);

blocks
(
    // hex ( 4 5 13 12 0 1 9 8 ) ( 78 32 1 ) simpleGrading ( 0.023  ( (0.2 0.5 1.88) (0.3 0.5 0.436) ) 1 )
    // hex ( 5 6 14 13 1 2 10 9 ) ( 100 32 1 ) simpleGrading ( 1    ( (0.2 0.5 1.88) (0.3 0.5 0.436) ) 1 )
    // hex ( 6 7 15 14 2 3 11 10 ) ( 99 32 1 ) simpleGrading ( 119.27 ( (0.2 0.5 1.88) (0.3 0.5 0.436) ) 1 )
    // hex ( 12 13 21 20 8 9 17 16 ) ( 78 100 1 ) simpleGrading ( 0.023 1 1 )
    // hex ( 13 14 22 21 9 10 18 17 ) ( 100 100 1 ) simpleGrading ( 1 1 1 )
    // hex ( 14 15 23 22 10 11 19 18 ) ( 99 100 1 ) simpleGrading ( 119.27 1 1 )
    // hex ( 20 21 29 28 16 17 25 24 ) ( 78 80 1 ) simpleGrading ( 0.023 47.2 1 )
    // hex ( 21 22 30 29 17 18 26 25 ) ( 100 80 1 ) simpleGrading ( 1 47.2 1 )
    // hex ( 22 23 31 30 18 19 27 26 ) ( 99 80 1 ) simpleGrading ( 119.27 47.2 1 )

    // Settings for coarse mesh
    hex ( 4 5 13 12 0 1 9 8 ) ( 47 7 1 ) simpleGrading ( 0.106  ( (0.2 0.5 1.1) (0.3 0.5 0.90) ) 1 )
    hex ( 5 6 14 13 1 2 10 9 ) ( 20 7 1 ) simpleGrading ( 1    ( (0.2 0.5 1.1) (0.3 0.5 0.90) ) 1 )
    hex ( 6 7 15 14 2 3 11 10 ) ( 66 7 1 ) simpleGrading ( 23.84 ( (0.2 0.5 1.1) (0.3 0.5 0.90) ) 1 )
    hex ( 12 13 21 20 8 9 17 16 ) ( 47 20 1 ) simpleGrading ( 0.106 1 1 )
    hex ( 13 14 22 21 9 10 18 17 ) ( 20 20 1 ) simpleGrading ( 1 1 1 )
    hex ( 14 15 23 22 10 11 19 18 ) ( 66 20 1 ) simpleGrading ( 23.84 1 1 )
    hex ( 20 21 29 28 16 17 25 24 ) ( 47 49 1 ) simpleGrading ( 0.106 10.4 1 )
    hex ( 21 22 30 29 17 18 26 25 ) ( 20 49 1 ) simpleGrading ( 1 10.4 1 )
    hex ( 22 23 31 30 18 19 27 26 ) ( 66 49 1 ) simpleGrading ( 23.84 10.4 1 )
);

edges ();

patches
(
    wall Inlet ( ( 0 8 12 4 )
                ( 8 16 20 12 )
                ( 16 24 28 20 ) )
    wall Outlet ( ( 3 11 15 7 )
                ( 11 19 23 15 )
                ( 19 27 31 23 ) )
    wall Floor ( ( 0 4 5 1 )
                ( 1 5 6 2 )
                ( 2 6 7 3 ) )
    wall Top ( ( 24 28 29 25 )
            ( 25 29 30 26 )
            ( 26 30 31 27 ) )
);

mergePatchPairs ();

fromFile true;


// ************************************************************************* //
