/*--------------------------------*- C++ -*----------------------------------*\
|       o        |                                                            |
|    o     o     |  HELYX (R) : Open-source CFD for Enterprise                |
|   o   O   o    |  Version : 4.4.0                                           |
|    o     o     |  ENGYS Ltd. <http://engys.com/>                            |
|       o        |                                                            |
\*---------------------------------------------------------------------------*/
FoamFile
{
    version     2.0;
    format      ascii;
    class       dictionary;
    object      viewFactorsDict;
}
// * * * * * * * * * * * * * * * * * * * * * * * * * * * * * * * * * * * * * //

// Write agglomeration as a volScalarField with calculated boundary values
writeFacesAgglomeration   true;

//Debug option
debug                     0;

//Dump connectivity rays
dumpRays                  false;

// Per patch (wildcard possible) the coarsening level
bottomAir_to_heater
{
    nFacesInCoarsestLevel     30;
    featureAngle              10;
}


// ************************************************************************* //
