/*--------------------------------*- C++ -*----------------------------------*\
|       o        |                                                            |
|    o     o     |  HELYX (R) : Open-source CFD for Enterprise                |
|   o   O   o    |  Version : 4.4.0                                           |
|    o     o     |  ENGYS Ltd. <http://engys.com/>                            |
|       o        |                                                            |
\*---------------------------------------------------------------------------*/
FoamFile
{
    version     2.0;
    format      ascii;
    class       dictionary;
    location    "constant";
    object      radiationProperties;
}
// * * * * * * * * * * * * * * * * * * * * * * * * * * * * * * * * * * * * * //

radiation on;

radiationModel  P1;

// Number of flow iterations per radiation iteration
solverFreq 1;

absorptionEmissionModel constant;

constantCoeffs
{
    absorptivity 0.5;
    emissivity 0.5;
    E 0;
}

scatterModel    none;

sootModel       none;

transmissivityModel none;

// ************************************************************************* //
