/*--------------------------------*- C++ -*----------------------------------*\
|       o        |                                                            |
|    o     o     |  HELYX (R) : Open-source CFD for Enterprise                |
|   o   O   o    |  Version : 4.4.0                                           |
|    o     o     |  ENGYS Ltd. <http://engys.com/>                            |
|       o        |                                                            |
\*---------------------------------------------------------------------------*/
FoamFile
{
    version     2.0;
    format      ascii;
    class       dictionary;
    object      blockMeshDict;
}
// * * * * * * * * * * * * * * * * * * * * * * * * * * * * * * * * * * * * * //

convertToMeters 1;

vertices
(
    (-51 -1 -1.05)
    (51 -1 -1.05)
    (51  101 -1.05)
    (-51 101 -1.05)
    (-51 -1 25.95)
    (51 -1 25.95)
    (51 101 25.95)
    (-51 101 25.95)
);

blocks
(
    hex (0 1 2 3 4 5 6 7) (102 102 27) simpleGrading (1 1 1)
);

edges ();

patches
(
    patch block
    (
        (0 4 7 3)
        (1 2 6 5)
        (3 7 6 2)
        (0 1 5 4)
        (4 5 6 7)
        (0 3 2 1)
    )
);

defaultPatch {}


// ************************************************************************* //
