/*--------------------------------*- C++ -*----------------------------------*\
|       o        |                                                            |
|    o     o     |  HELYX (R) : Open-source CFD for Enterprise                |
|   o   O   o    |  Version : 4.4.0                                           |
|    o     o     |  ENGYS Ltd. <http://engys.com/>                            |
|       o        |                                                            |
\*---------------------------------------------------------------------------*/
FoamFile
{
    version     2.0;
    format      ascii;
    class       dictionary;
    object      decomposeParDict;
}

// * * * * * * * * * * * * * * * * * * * * * * * * * * * * * * * * * * * * * //

numberOfSubdomains 5;

method          hierarchical;
// method          ptscotch;


// Optional decomposition constraints
constraints
{
    refinementHistory
    {
        //- Decompose cells such that all cell originating from single cell
        //  end up on same processor
        type    refinementHistory;
    }
}


simpleCoeffs
{
    n               (4 1 1);
}

hierarchicalCoeffs
{
    n               (5 1 1);
    order           xyz;
}

manualCoeffs
{
    dataFile        "cellDecomposition";
}


// ************************************************************************* //
