/*--------------------------------*- C++ -*----------------------------------*\
|       o        |                                                            |
|    o     o     |  HELYX (R) : Open-source CFD for Enterprise                |
|   o   O   o    |  Version : 4.4.0                                           |
|    o     o     |  ENGYS Ltd. <http://engys.com/>                            |
|       o        |                                                            |
\*---------------------------------------------------------------------------*/
FoamFile
{
    version     2.0;
    format      ascii;
    class       dictionary;
    object      controlDict;
}
// * * * * * * * * * * * * * * * * * * * * * * * * * * * * * * * * * * * * * //

application     helyxSolve;

startFrom       startTime;

startTime       0;

stopAt          endTime;

endTime         1;

deltaT          0.001;

writeControl    adjustableRunTime;

writeInterval   0.01;

purgeWrite      0;

writeFormat     ascii;

writePrecision  6;

writeCompression uncompressed;

timeFormat      general;

timePrecision   6;

graphFormat     raw;

runTimeModifiable yes;

libs            1 ( "" );

adjustTimeStep  no;

maxCo           0.5;

maxDeltaT       1;

functions
{
    VR
    {
        functionObjectLibs ( "libreport.so" );
        logToFile       yes;
        fields          ( U p Cparticulate );
        executeControl  onEnd;
        type            volumeReport;
        writeControl    onEnd;
        outputFileFormat tsv;
    }
    inletFlowRate
    {
        type            surfaceFieldValue;
        libs            ( "libfieldFunctionObjects.so" );
        writeControl    timeStep;
        writeInterval   1;
        writeFields     false;
        log             false;
        regionType      patch;
        name            inlet;
        fields          ( phi );
        operation       sum;
    }
    lowerOutletFlowRate
    {
        type            surfaceFieldValue;
        libs            ( "libfieldFunctionObjects.so" );
        writeControl    timeStep;
        writeInterval   1;
        writeFields     false;
        log             false;
        regionType      patch;
        name            lowerOutlet;
        fields          ( phi );
        operation       sum;
    }
    upperOutletFlowRate
    {
        type            surfaceFieldValue;
        libs            ( "libfieldFunctionObjects.so" );
        writeControl    timeStep;
        writeInterval   1;
        writeFields     false;
        log             false;
        regionType      patch;
        name            upperOutlet;
        fields          ( phi );
        operation       sum;
    }
}


// ************************************************************************* //
