/*--------------------------------*- C++ -*----------------------------------*\
|       o        |                                                            |
|    o     o     |  HELYX (R) : Open-source CFD for Enterprise                |
|   o   O   o    |  Version : 4.4.0                                           |
|    o     o     |  ENGYS Ltd. <http://engys.com/>                            |
|       o        |                                                            |
\*---------------------------------------------------------------------------*/
FoamFile
{
    version     2.0;
    format      ascii;
    class       dictionary;
    location    "constant";
    object      transportProperties;
}
// * * * * * * * * * * * * * * * * * * * * * * * * * * * * * * * * * * * * * //

transportModel  approachingNu;

approachingNuCoeffs
{
    nu_desired          nu_desired [ 0 2 -1 0 0 0 0 ] 1e-06;
    nu_start            nu_start [ 0 2 -1 0 0 0 0 ] 1.0;
    some_fixed_time     some_fixed_time [ 0 0 1 0 0 0 0 ] 200;
}
