/*--------------------------------*- C++ -*----------------------------------*\
|       o        |                                                            |
|    o     o     |  HELYX (R) : Open-source CFD for Enterprise                |
|   o   O   o    |  Version : 4.4.0                                           |
|    o     o     |  ENGYS Ltd. <http://engys.com/>                            |
|       o        |                                                            |
\*---------------------------------------------------------------------------*/
FoamFile
{
    version     2.0;
    format      ascii;
    class       dictionary;
    object      caseSetupDict;
}
// * * * * * * * * * * * * * * * * * * * * * * * * * * * * * * * * * * * * * //

global
{
    regionGroups   (fluidRegions (d1 d2 d3 d4 d5 d6 d7 d8 d9 d10 d11 d12 d13 d14 d15 d16) );
    solutionMesh
    {
        d1 region0;
        d2 region0;
        d3 region0;
        d4 region0;
        d5 region0;
        d6 region0;
        d7 region0;
        d8 region0;
        d9 region0;
        d10 region0;
        d11 region0;
        d12 region0;
        d13 region0;
        d14 region0;
        d15 region0;
        d16 region0;
    }
    solutionSchedule
    {
        d1 ( (d1));
        d2 ( (d2));
        d3 ( (d3));
        d4 ( (d4));
        d5 ( (d5));
        d6 ( (d6));
        d7 ( (d7));
        d8 ( (d8));
        d9 ( (d9));
        d10 ( (d10));
        d11 ( (d11));
        d12 ( (d12));
        d13 ( (d13));
        d14 ( (d14));
        d15 ( (d15));
        d16 ( (d16));
    }
    system
    {
        controlDict
        {
            application helyxSolve;
            startFrom latestTime;
            stopAt endTime;
            endTime 100;
            deltaT constant 1.0;
            writeControl timeStep;
            writeInterval 100;
            purgeWrite 0;
            writeFormat binary;
        }
        fvOptions
        {
            velocityLimiter
            {
                type velocityLimiterSource;
                active true;
                velocityLimiterSourceCoeffs
                {
                    Ulimit 50.0;
                    selectionMode all;
                    velocityDamp false;
                    velocityClip true;
                    verbose true;
                }
            }
        }
    }
}

regions
{
    fluidRegions
    {
        state           (steady ras);
        boundaryMesh
        {
            ffminz
            {
                type wall;
            }

            ffmaxz
            {
                type patch;
            }

            cylinder
            {
                type patch;
            }

            main
            {
                type wall;
            }

            annex
            {
                type wall;
            }

            t1_wall
            {
                type wall;
            }

            t2_wall
            {
                type wall;
            }

            t1_in
            {
                type wall;
            }

            t2_in
            {
                type wall;
            }
        }

        turbulenceModel realizableKE;
        materials (air);
        materialProperties
        {
            materialName    air;
            materialType    fluid;
            equationOfState rhoConst;
            thermodynamics  hConst;
            energy          sensibleEnthalpy;
            molWeight       28.9;
            thermodynamicsCoeffs
            {
                Cp              1007;
                Hf              0;
            }
            equationOfStateCoeffs
            {
                rho             1.225;
                R               287;
            }
            kappaModel      kappaPrandtl;
            kappaModelCoeffs
            {
                Pr              0.71;
            }
            muModel         scalarFunction1;
            muModelCoeffs
            {
                mu              1.8232e-05;
            }
            transport       muConst;
            transportCoeffs
            {
                mu              1.84e-05;
                Pr              0.7;
            }
            referenceFields
            {
                p               [ 1 -1 -2 0 0 0 0 ] 100000;
            }
        }

        fields
        {
            p
            {
                initialisation
                {
                    type fixedValue;
                    value uniform 0;
                }
            }

            U
            {
                initialisation
                {
                    type fixedValue;
                    value uniform ( 0.0 -5.0 0.0 );
                }
            }

            k
            {
                initialisation
                {
                    type turbulentIL;
                    I 0.05;
                    L 0.01;
                    Uref 1.0;
                }
            }

            epsilon
            {
                initialisation
                {
                    type turbulentIL;
                    I 0.05;
                    L 0.01;
                    Uref 1.0;
                }

            }

            nut
            {
                initialisation
                {
                    type turbulentIL;
                    I 0.05;
                    L 0.01;
                    Uref 1.0;
                }

            }
        }

        boundaryConditions
        {
            ffmaxz
            {
                p
                {
                    type fixedMean;
                    meanValue constant 0;
                    value uniform 0;
                }
                U
                {
                    type zeroGradient;
                }
                k
                {
                    type turbulentIntensityKineticEnergyInlet;
                    value uniform 0.1;
                    intensity 0.05;
                }
                epsilon
                {
                    type turbulentMixingLengthDissipationRateInlet;
                    value uniform 0.01;
                    mixingLength 0.01;
                }
            }
            cylinder
            {
                U
                {
                    type windProfileDirectionVelocity;
                    value uniform ( 0.0 0.0 0.0 );
                    profile AIJWindProfile;
                    profileCoeffs
                    {
                        Cmu 0.09;
                        Uref 7.8;
                        alpha 0.2;
                        Href 120;
                        zG 10;
                    }
                    outOfBounds clamp;
                    distanceType z;
                    origin ( 0.0 0.0 0.0 );
                    windDirection constant 0.0;
                }
                p
                {
                    type zeroGradient;
                }
                k
                {
                    type interpolatedInletOutlet;
                    value uniform 0.01;
                    profile AIJWindKineticEnergyProfile;
                    profileCoeffs
                    {
                        Cmu 0.09;
                        Uref 7.8;
                        alpha 0.2;
                        Href 120;
                        zG 10;
                    }
                    outOfBounds clamp;
                    distanceType z;
                    origin ( 0.0 0.0 0.0 );
                }
                epsilon
                {
                    type interpolatedInletOutlet;
                    value uniform 0.01;
                    profile AIJWindDissipationRateProfile;
                    profileCoeffs
                    {
                        Cmu 0.09;
                        Uref 7.8;
                        alpha 0.2;
                        Href 120;
                        zG 10;
                    }
                    outOfBounds clamp;
                    distanceType z;
                    origin ( 0.0 0.0 0.0 );
                }
                nut
                {
                    type calculated;
                    value uniform 0.0;
                }
            }
        }
    }

    d1
    {
        functions
        {
            VR1
            {
                type volumeReport;
                region d1;
                instance d1;
                fields ( U k epsilon p );
                writeControl timeStep;
                functionObjectLibs ( "libreport.so" );
            }
            probes1
            {
                type            probes;
                name            probes;
                region          d1;
                instance        d1;
                writeControl    writeTime;
                writeInterval   1;
                functionObjectLibs ( "libsampling.so" );
                enabled         true;
                probeLocations  ( ( 15 0 2 ) ( 15 20 2 ) );
                fields          ( U p );
                executeControl  timeStep;
                libs            ( "libsampling.so" );
            }
        }
        fields
        {
            U
            {
                initialisation
                {
                    type fixedValue;
                    value uniform ( 0.0 -5.0 0.0 );
                }
            }
        }
        boundaryConditions
        {
            cylinder
            {
                U
                {
                    type windProfileDirectionVelocity;
                    value uniform ( 0.0 0.0 0.0 );
                    profile AIJWindProfile;
                    profileCoeffs
                    {
                        Cmu 0.09;
                        Uref 7.8;
                        alpha 0.2;
                        Href 120;
                        zG 10;
                    }
                    outOfBounds clamp;
                    distanceType z;
                    origin ( 0.0 0.0 0.0 );
                    windDirection constant 0.0;
                }
                p
                {
                    type zeroGradient;
                }
                k
                {
                    type interpolatedInletOutlet;
                    value uniform 0.01;
                    profile AIJWindKineticEnergyProfile;
                    profileCoeffs
                    {
                        Cmu 0.09;
                        Uref 7.8;
                        alpha 0.2;
                        Href 120;
                        zG 10;
                    }
                    outOfBounds clamp;
                    distanceType z;
                    origin ( 0.0 0.0 0.0 );
                }
                epsilon
                {
                    type interpolatedInletOutlet;
                    value uniform 0.01;
                    profile AIJWindDissipationRateProfile;
                    profileCoeffs
                    {
                        Cmu 0.09;
                        Uref 7.8;
                        alpha 0.2;
                        Href 120;
                        zG 10;
                    }
                    outOfBounds clamp;
                    distanceType z;
                    origin ( 0.0 0.0 0.0 );
                }
                nut
                {
                    type calculated;
                    value uniform 0.0;
                }
            }
        }
    }

    d2
    {
        functions
        {
            VR2
            {
                type volumeReport;
                region d2;
                instance d2;
                fields ( U k epsilon p );
                writeControl timeStep;
                functionObjectLibs ( "libreport.so" );
            }
            probes2
            {
                type            probes;
                name            probes;
                region          d2;
                instance        d2;
                writeControl    writeTime;
                writeInterval   1;
                functionObjectLibs ( "libsampling.so" );
                enabled         true;
                probeLocations  ( ( 15 0 2 ) ( 15 20 2 ) );
                fields          ( U p );
                executeControl  timeStep;
                libs            ( "libsampling.so" );
            }
        }
        fields
        {
            U
            {
                initialisation
                {
                    type fixedValue;
                    value uniform ( -1.91 -4.62 0 );
                }

            }
        }
        boundaryConditions
        {
            cylinder
            {
                U
                {
                    type windProfileDirectionVelocity;
                    value uniform ( 0.0 0.0 0.0 );
                    profile AIJWindProfile;
                    profileCoeffs
                    {
                        Cmu 0.09;
                        Uref 7.8;
                        alpha 0.2;
                        Href 120;
                        zG 10;
                    }
                    outOfBounds clamp;
                    distanceType z;
                    origin ( 0.0 0.0 0.0 );
                    windDirection constant 22.5;
                }
                p
                {
                    type zeroGradient;
                }
                k
                {
                    type interpolatedInletOutlet;
                    value uniform 0.01;
                    profile AIJWindKineticEnergyProfile;
                    profileCoeffs
                    {
                        Cmu 0.09;
                        Uref 7.8;
                        alpha 0.2;
                        Href 120;
                        zG 10;
                    }
                    outOfBounds clamp;
                    distanceType z;
                    origin ( 0.0 0.0 0.0 );
                }
                epsilon
                {
                    type interpolatedInletOutlet;
                    value uniform 0.01;
                    profile AIJWindDissipationRateProfile;
                    profileCoeffs
                    {
                        Cmu 0.09;
                        Uref 7.8;
                        alpha 0.2;
                        Href 120;
                        zG 10;
                    }
                    outOfBounds clamp;
                    distanceType z;
                    origin ( 0.0 0.0 0.0 );
                }
            }
        }
    }

    d3
    {
        functions
        {
            VR3
            {
                type volumeReport;
                region d3;
                instance d3;
                fields ( U k epsilon p );
                writeControl timeStep;
                functionObjectLibs ( "libreport.so" );
            }
            probes3
            {
                type            probes;
                name            probes;
                region          d3;
                instance        d3;
                writeControl    writeTime;
                writeInterval   1;
                functionObjectLibs ( "libsampling.so" );
                enabled         true;
                probeLocations  ( ( 15 0 2 ) ( 15 20 2 ) );
                fields          ( U p );
                executeControl  timeStep;
                libs            ( "libsampling.so" );
            }
        }
        fields
        {
            U
            {
                initialisation
                {
                    type fixedValue;
                    value uniform ( -3.53 -3.53 0 );
                }

            }
        }
        boundaryConditions
        {
            cylinder
            {
                U
                {
                    type windProfileDirectionVelocity;
                    value uniform ( 0.0 0.0 0.0 );
                    profile AIJWindProfile;
                    profileCoeffs
                    {
                        Cmu 0.09;
                        Uref 7.8;
                        alpha 0.2;
                        Href 120;
                        zG 10;
                    }
                    outOfBounds clamp;
                    distanceType z;
                    origin ( 0.0 0.0 0.0 );
                    windDirection constant 45.0;
                }
                p
                {
                    type zeroGradient;
                }
                k
                {
                    type interpolatedInletOutlet;
                    value uniform 0.01;
                    profile AIJWindKineticEnergyProfile;
                    profileCoeffs
                    {
                        Cmu 0.09;
                        Uref 7.8;
                        alpha 0.2;
                        Href 120;
                        zG 10;
                    }
                    outOfBounds clamp;
                    distanceType z;
                    origin ( 0.0 0.0 0.0 );
                }
                epsilon
                {
                    type interpolatedInletOutlet;
                    value uniform 0.01;
                    profile AIJWindDissipationRateProfile;
                    profileCoeffs
                    {
                        Cmu 0.09;
                        Uref 7.8;
                        alpha 0.2;
                        Href 120;
                        zG 10;
                    }
                    outOfBounds clamp;
                    distanceType z;
                    origin ( 0.0 0.0 0.0 );
                }
            }
        }
    }

    d4
    {
        functions
        {
            VR4
            {
                type volumeReport;
                region d4;
                instance d4;
                fields ( U k epsilon p );
                writeControl timeStep;
                functionObjectLibs ( "libreport.so" );
            }
            probes4
            {
                type            probes;
                name            probes;
                region          d4;
                instance        d4;
                writeControl    writeTime;
                writeInterval   1;
                functionObjectLibs ( "libsampling.so" );
                enabled         true;
                probeLocations  ( ( 15 0 2 ) ( 15 20 2 ) );
                fields          ( U p );
                executeControl  timeStep;
                libs            ( "libsampling.so" );
            }
        }
        fields
        {
            U
            {
                initialisation
                {
                    type fixedValue;
                    value uniform ( -4.61 -1.91 0 );
                }

            }
        }
        boundaryConditions
        {
            cylinder
            {
                U
                {
                    type windProfileDirectionVelocity;
                    value uniform ( 0.0 0.0 0.0 );
                    profile AIJWindProfile;
                    profileCoeffs
                    {
                        Cmu 0.09;
                        Uref 7.8;
                        alpha 0.2;
                        Href 120;
                        zG 10;
                    }
                    outOfBounds clamp;
                    distanceType z;
                    origin ( 0.0 0.0 0.0 );
                    windDirection constant 67.5;
                }
                p
                {
                    type zeroGradient;
                }
                k
                {
                    type interpolatedInletOutlet;
                    value uniform 0.01;
                    profile AIJWindKineticEnergyProfile;
                    profileCoeffs
                    {
                        Cmu 0.09;
                        Uref 7.8;
                        alpha 0.2;
                        Href 120;
                        zG 10;
                    }
                    outOfBounds clamp;
                    distanceType z;
                    origin ( 0.0 0.0 0.0 );
                }
                epsilon
                {
                    type interpolatedInletOutlet;
                    value uniform 0.01;
                    profile AIJWindDissipationRateProfile;
                    profileCoeffs
                    {
                        Cmu 0.09;
                        Uref 7.8;
                        alpha 0.2;
                        Href 120;
                        zG 10;
                    }
                    outOfBounds clamp;
                    distanceType z;
                    origin ( 0.0 0.0 0.0 );
                }
            }
        }
    }

    d5
    {
        functions
        {
            VR5
            {
                type volumeReport;
                region d5;
                instance d5;
                fields ( U k epsilon p );
                writeControl timeStep;
                functionObjectLibs ( "libreport.so" );
            }
            probes5
            {
                type            probes;
                name            probes;
                region          d5;
                instance        d5;
                writeControl    writeTime;
                writeInterval   1;
                functionObjectLibs ( "libsampling.so" );
                enabled         true;
                probeLocations  ( ( 15 0 2 ) ( 15 20 2 ) );
                fields          ( U p );
                executeControl  timeStep;
                libs            ( "libsampling.so" );
            }
        }
        fields
        {
            U
            {
                initialisation
                {
                    type fixedValue;
                    value uniform ( -5 0 0 );
                }

            }
        }
        boundaryConditions
        {
            cylinder
            {
                U
                {
                    type windProfileDirectionVelocity;
                    value uniform ( 0.0 0.0 0.0 );
                    profile AIJWindProfile;
                    profileCoeffs
                    {
                        Cmu 0.09;
                        Uref 7.8;
                        alpha 0.2;
                        Href 120;
                        zG 10;
                    }
                    outOfBounds clamp;
                    distanceType z;
                    origin ( 0.0 0.0 0.0 );
                    windDirection constant 90.0;
                }
                p
                {
                    type zeroGradient;
                }
                k
                {
                    type interpolatedInletOutlet;
                    value uniform 0.01;
                    profile AIJWindKineticEnergyProfile;
                    profileCoeffs
                    {
                        Cmu 0.09;
                        Uref 7.8;
                        alpha 0.2;
                        Href 120;
                        zG 10;
                    }
                    outOfBounds clamp;
                    distanceType z;
                    origin ( 0.0 0.0 0.0 );
                }
                epsilon
                {
                    type interpolatedInletOutlet;
                    value uniform 0.01;
                    profile AIJWindDissipationRateProfile;
                    profileCoeffs
                    {
                        Cmu 0.09;
                        Uref 7.8;
                        alpha 0.2;
                        Href 120;
                        zG 10;
                    }
                    outOfBounds clamp;
                    distanceType z;
                    origin ( 0.0 0.0 0.0 );
                }
            }
        }
    }

    d6
    {
        functions
        {
            VR6
            {
                type volumeReport;
                region d6;
                instance d6;
                fields ( U k epsilon p );
                writeControl timeStep;
                functionObjectLibs ( "libreport.so" );
            }
            probes6
            {
                type            probes;
                name            probes;
                region          d6;
                instance        d6;
                writeControl    writeTime;
                writeInterval   1;
                functionObjectLibs ( "libsampling.so" );
                enabled         true;
                probeLocations  ( ( 15 0 2 ) ( 15 20 2 ) );
                fields          ( U p );
                executeControl  timeStep;
                libs            ( "libsampling.so" );
            }
        }
        fields
        {
            U
            {
                initialisation
                {
                    type fixedValue;
                    value uniform ( -4.61 1.91 0 );
                }

            }
        }
        boundaryConditions
        {
            cylinder
            {
                U
                {
                    type windProfileDirectionVelocity;
                    value uniform ( 0.0 0.0 0.0 );
                    profile AIJWindProfile;
                    profileCoeffs
                    {
                        Cmu 0.09;
                        Uref 7.8;
                        alpha 0.2;
                        Href 120;
                        zG 10;
                    }
                    outOfBounds clamp;
                    distanceType z;
                    origin ( 0.0 0.0 0.0 );
                    windDirection constant 112.5;
                }
                p
                {
                    type zeroGradient;
                }
                k
                {
                    type interpolatedInletOutlet;
                    value uniform 0.01;
                    profile AIJWindKineticEnergyProfile;
                    profileCoeffs
                    {
                        Cmu 0.09;
                        Uref 7.8;
                        alpha 0.2;
                        Href 120;
                        zG 10;
                    }
                    outOfBounds clamp;
                    distanceType z;
                    origin ( 0.0 0.0 0.0 );
                }
                epsilon
                {
                    type interpolatedInletOutlet;
                    value uniform 0.01;
                    profile AIJWindDissipationRateProfile;
                    profileCoeffs
                    {
                        Cmu 0.09;
                        Uref 7.8;
                        alpha 0.2;
                        Href 120;
                        zG 10;
                    }
                    outOfBounds clamp;
                    distanceType z;
                    origin ( 0.0 0.0 0.0 );
                }
            }
        }
    }

    d7
    {
        functions
        {
            VR7
            {
                type volumeReport;
                region d7;
                instance d7;
                fields ( U k epsilon p );
                writeControl timeStep;
                functionObjectLibs ( "libreport.so" );
            }
            probes7
            {
                type            probes;
                name            probes;
                region          d7;
                instance        d7;
                writeControl    writeTime;
                writeInterval   1;
                functionObjectLibs ( "libsampling.so" );
                enabled         true;
                probeLocations  ( ( 15 0 2 ) ( 15 20 2 ) );
                fields          ( U p );
                executeControl  timeStep;
                libs            ( "libsampling.so" );
            }
        }
        fields
        {
            U
            {
                initialisation
                {
                    type fixedValue;
                    value uniform ( -3.53 3.53 0 );
                }

            }
        }
        boundaryConditions
        {
            cylinder
            {
                U
                {
                    type windProfileDirectionVelocity;
                    value uniform ( 0.0 0.0 0.0 );
                    profile AIJWindProfile;
                    profileCoeffs
                    {
                        Cmu 0.09;
                        Uref 7.8;
                        alpha 0.2;
                        Href 120;
                        zG 10;
                    }
                    outOfBounds clamp;
                    distanceType z;
                    origin ( 0.0 0.0 0.0 );
                    windDirection constant 135.0;
                }
                p
                {
                    type zeroGradient;
                }
                k
                {
                    type interpolatedInletOutlet;
                    value uniform 0.01;
                    profile AIJWindKineticEnergyProfile;
                    profileCoeffs
                    {
                        Cmu 0.09;
                        Uref 7.8;
                        alpha 0.2;
                        Href 120;
                        zG 10;
                    }
                    outOfBounds clamp;
                    distanceType z;
                    origin ( 0.0 0.0 0.0 );
                }
                epsilon
                {
                    type interpolatedInletOutlet;
                    value uniform 0.01;
                    profile AIJWindDissipationRateProfile;
                    profileCoeffs
                    {
                        Cmu 0.09;
                        Uref 7.8;
                        alpha 0.2;
                        Href 120;
                        zG 10;
                    }
                    outOfBounds clamp;
                    distanceType z;
                    origin ( 0.0 0.0 0.0 );
                }
            }
        }
    }

    d8
    {
        functions
        {
            VR8