/*--------------------------------*- C++ -*----------------------------------*\
|       o        |                                                            |
|    o     o     |  HELYX (R) : Open-source CFD for Enterprise                |
|   o   O   o    |  Version : 4.4.0                                           |
|    o     o     |  ENGYS Ltd. <http://engys.com/>                            |
|       o        |                                                            |
\*---------------------------------------------------------------------------*/
FoamFile
{
    version     2.0;
    format      ascii;
    class       dictionary;
    object      controlDict;
}
// * * * * * * * * * * * * * * * * * * * * * * * * * * * * * * * * * * * * * //

application     helyxSolve;

startFrom       latestTime;

startTime       0;

stopAt          endTime;

endTime         200;

deltaT          1;

writeControl    timeStep;

writeInterval   100;

purgeWrite      0;

writeFormat     ascii;

writePrecision  10;

writeCompression uncompressed;

timeFormat      general;

timePrecision   6;

graphFormat     raw;

runTimeModifiable yes;

libs            1 ( "" );

functions
{
    SR-out
    {
        functionObjectLibs ( "libreport.so" );
        logToFile       yes;
        weighting       flux;
        fluxName        phi;
        fields          ( T );
        surfaces        ( { type patch ; name outlet ; } );
        constraints     ( { type boundBox ; min ( -1000 -1000 -1000 ) ; max ( 1000 1000 1000 ) ; keepInside true ; } );
        executeControl  onEnd;
        type            surfaceReport;
        regions         ( default );
        homogeneity     false;
        writeControl    onEnd;
        outputFileFormat tsv;
    }
    VR-solid
    {
        functionObjectLibs ( "libreport.so" );
        logToFile       yes;
        fields          ( T );
        executeControl  onEnd;
        type            volumeReport;
        regions         ( solid );
        writeControl    onEnd;
        outputFileFormat tsv;
    }
    solidHeatFlux
    {
        type            wallHeatFlux;
        libs            ( "libfieldFunctionObjects.so" );
        region          solid;
        kappaMethod     solidThermo;
        executeControl  onEnd;
        writeControl    onEnd;
    }
    fluidHeatFlux
    {
        type            wallHeatFlux;
        libs            ( "libfieldFunctionObjects.so" );
        region          default;
        patches         ( default_to_solid );
        kappaMethod     fluidThermo;
        executeControl  onEnd;
        writeControl    onEnd;
    }
}


// ************************************************************************* //
