/*--------------------------------*- C++ -*----------------------------------*\
|       o        |                                                            |
|    o     o     |  HELYX (R) : Open-source CFD for Enterprise                |
|   o   O   o    |  Version : 4.4.0                                           |
|    o     o     |  ENGYS Ltd. <http://engys.com/>                            |
|       o        |                                                            |
\*---------------------------------------------------------------------------*/
FoamFile
{
    version     2.0;
    format      ascii;
    class       dictionary;
    object      helyxHexMeshDict;
}
// * * * * * * * * * * * * * * * * * * * * * * * * * * * * * * * * * * * * * //

#includeEtc "caseDicts/mesh/generation/helyxHexMeshDict.cfg"

meshAlgorith standard;

castellatedMesh true;
snap true;
addLayers true;

blockType auto;
blockData ( 0.1 0 );

geometry
{
    inlet.stl
    {
        type triSurfaceMesh;
        name inlet;
        appendRegionName false;
    }
    sides.stl
    {
        type triSurfaceMesh;
        name sides;
        appendRegionName false;
    }
    outlet.stl
    {
        type triSurfaceMesh;
        name outlet;
        appendRegionName false;
    }
    solid
    {
        type searchableBox;
        min ( 3.0 -0.4 -0.4 );
        max ( 3.8 0.4 0.4 );
    }
}

castellatedMeshControls
{
    features ( );
    refinementSurfaces
    {
        inlet
        {
            level ( 0 0 );
        }
        sides
        {
            level ( 0 0 );
        }
        outlet
        {
            level ( 0 0 );
        }
        solid
        {
            level ( 0 0 );
            faceType internal;
            faceZone solid;
            cellZoneInside inside;
            cellZone solid;
            baffleChecks true;
            allowFreeStandingZoneFaces false;
        }
    }
    refinementRegions
    {
    }

    locationsInMesh ( ( ( 5.0 0.0 0.0 ) none ) );
}

snapControls
{
}

addLayersControls
{
    layers
    {
        inlet
        {
            nSurfaceLayers 0;
            grownUp true;
        }
        sides
        {
            nSurfaceLayers 3;
            finalLayerThickness 0.4;
            expansionRatio 1.25;
            grownUp automatic;
        }
        outlet
        {
            nSurfaceLayers 0;
            grownUp true;
        }
        solid
        {
            nSurfaceLayers 0;
            finalLayerThickness 0.4;
            expansionRatio 1.25;
            grownUp false;
        }
        solid_slave
        {
            nSurfaceLayers 0;
            finalLayerThickness 0.4;
            expansionRatio 1.25;
            grownUp false;
        }
    }
}

meshQualityControls
{
}

// ************************************************************************* //
