/*--------------------------------*- C++ -*----------------------------------*\
|       o        |                                                            |
|    o     o     |  HELYX (R) : Open-source CFD for Enterprise                |
|   o   O   o    |  Version : 4.4.0                                           |
|    o     o     |  ENGYS Ltd. <http://engys.com/>                            |
|       o        |                                                            |
\*---------------------------------------------------------------------------*/
FoamFile
{
    version     2.0;
    format      ascii;
    class       dictionary;
    location    "system";
    object      fvSolution;
}
// * * * * * * * * * * * * * * * * * * * * * * * * * * * * * * * * * * * * * //

solvers
{
    "pcorr.*"
    {
        solver          GAMG;
        smoother        GaussSeidel;
        cacheAgglomeration no;

        tolerance        0.02;
        relTol           0;
    }

    p
    {
        $pcorr;
        tolerance       1e-06;
        relTol          0.01;
    }

    pFinal
    {
        $p;
        tolerance       1e-06;
        relTol          0;
    }

    U
    {
        solver          smoothSolver;
        smoother        GaussSeidel;
        tolerance       1e-05;
        relTol          0.01;
    }

    UFinal
    {
        $U;
        tolerance       1e-06;
        relTol          0;
    }

    cellMotionUx
    {
        solver          PCG;
        preconditioner  DIC;
        tolerance       1e-08;
        relTol          0;
    }
}

PIMPLE
{
    correctPhi          yes;
    nOuterCorrectors    2;
    nCorrectors         1;
    nNonOrthogonalCorrectors 0;

    pRefCell            0;
    pRefValue           0;
}

relaxationFactors
{
    equations
    {
        "U.*"           1;
    }
}

// ************************************************************************* //
