/*--------------------------------*- C++ -*----------------------------------*\
|       o        |                                                            |
|    o     o     |  HELYX (R) : Open-source CFD for Enterprise                |
|   o   O   o    |  Version : 4.4.0                                           |
|    o     o     |  ENGYS Ltd. <http://engys.com/>                            |
|       o        |                                                            |
\*---------------------------------------------------------------------------*/
FoamFile
{
    version     2.0;
    format      ascii;
    class       dictionary;
    location    "constant";
    object      dsmcProperties;
}
// * * * * * * * * * * * * * * * * * * * * * * * * * * * * * * * * * * * * * //


// General Properties
// ~~~~~~~~~~~~~~~~~~

nEquivalentParticles            1.2e12;


// Wall Interaction Model
// ~~~~~~~~~~~~~~~~~~~~~~

WallInteractionModel            MaxwellianThermal;


// Binary Collision Model
// ~~~~~~~~~~~~~~~~~~~~~~

BinaryCollisionModel            VariableHardSphere;

VariableHardSphereCoeffs
{
    Tref        273;
}


// Inflow Boundary Model
// ~~~~~~~~~~~~~~~~~~~~~

InflowBoundaryModel             FreeStream;

FreeStreamCoeffs
{
    numberDensities
    {
        Ar      1.0e20;
    };
}


// Molecular species
// ~~~~~~~~~~~~~~~~~

typeIdList                      (Ar);

moleculeProperties
{
    Ar
    {
        mass                            66.3e-27;
        diameter                        4.17e-10;
        internalDegreesOfFreedom        0;
        omega                           0.81;
    }
}

// ************************************************************************* //
