/*--------------------------------*- C++ -*----------------------------------*\
|       o        |                                                            |
|    o     o     |  HELYX (R) : Open-source CFD for Enterprise                |
|   o   O   o    |  Version : 4.4.0                                           |
|    o     o     |  ENGYS Ltd. <http://engys.com/>                            |
|       o        |                                                            |
\*---------------------------------------------------------------------------*/
FoamFile
{
    version     2.0;
    format      ascii;
    class       dictionary;
    object      topoSetDict;
}
// * * * * * * * * * * * * * * * * * * * * * * * * * * * * * * * * * * * * * //

actions
(
    // forest cellZone
    {
        name    forestCell;
        type    cellSet;
        action  new;
        source  boxToCell;
        sourceInfo
        {
            box ( -0.51 -1.0 0.49 ) ( 0.51 1.0 1.51 );
        }
    }
    {
        name    tree;
        type    cellZoneSet;
        action  new;
        source  setToCellZone;
        sourceInfo
        {
            set forestCell;
        }
    }
);


// ************************************************************************* //
