/*--------------------------------*- C++ -*----------------------------------*\
|       o        |                                                            |
|    o     o     |  HELYX (R) : Open-source CFD for Enterprise                |
|   o   O   o    |  Version : 4.4.0                                           |
|    o     o     |  ENGYS Ltd. <http://engys.com/>                            |
|       o        |                                                            |
\*---------------------------------------------------------------------------*/
FoamFile
{
    version     2.0;
    format      ascii;
    class       dictionary;
    location    "system";
    object      fvSolution;
}
// * * * * * * * * * * * * * * * * * * * * * * * * * * * * * * * * * * * * * //

solvers
{
    "rho.*"
    {
        solver          diagonal;
    }

    p_rgh
    {
        solver          GAMG;
        smoother        DICGaussSeidel;

        tolerance       1e-6;
        relTol          0.05;
    }

    p_rghFinal
    {
        $p_rgh;
        relTol          0;
    }

    Phi
    {
        $p_rgh;
    }

    "(U|k|omega)"
    {
        solver          smoothSolver;
        smoother        symGaussSeidel;

        tolerance       1e-6;
        relTol          0.1;
    }

    "(U|k|omega)Final"
    {
        $U;
        relTol          0;
    }

    "(Yi|O2|N2|H2O)"
    {
        solver          PBiCGStab;
        preconditioner  DILU;

        tolerance       1e-6;
        relTol          0;
    }

    h
    {
        $Yi;
        relTol          0.1;
    }

    hFinal
    {
        $Yi;
    }
}

potentialFlow
{
    // Used for potentialFoam initialisation
    nNonOrthogonalCorrectors 5;
}

PIMPLE
{
    nOuterCorrectors 1;
    nCorrectors     3;
    nNonOrthogonalCorrectors 0;
    momentumPredictor yes;

    pMaxFactor          1.5;
    pMinFactor          0.9;
}

relaxationFactors
{
    equations
    {
        ".*"            1;
    }
}


// ************************************************************************* //
