/*--------------------------------*- C++ -*----------------------------------*\
|       o        |                                                            |
|    o     o     |  HELYX (R) : Open-source CFD for Enterprise                |
|   o   O   o    |  Version : 4.4.0                                           |
|    o     o     |  ENGYS Ltd. <http://engys.com/>                            |
|       o        |                                                            |
\*---------------------------------------------------------------------------*/
FoamFile
{
    version     2.0;
    format      ascii;
    class       dictionary;
    object      createPatchDict;
}
// * * * * * * * * * * * * * * * * * * * * * * * * * * * * * * * * * * * * * //

pointSync false;

patches
(
    {
        name            AMI_rotor;
        patchInfo
        {
            type            cyclicAMI;
            matchTolerance  0.0001;
            neighbourPatch  AMI_rotor_slave;
        }
        constructFrom patches;
        patches (v_rotor);
    }
    {
        name            AMI_rotor_slave;
        patchInfo
        {
            type            cyclicAMI;
            matchTolerance  0.0001;
            neighbourPatch  AMI_rotor;
        }
        constructFrom patches;
        patches (v_rotor_slave);
    }
    {
        name            AMI_dualWing;
        patchInfo
        {
            type            cyclicAMI;
            matchTolerance  0.0001;
            neighbourPatch  AMI_dualWing_slave;
        }
        constructFrom patches;
        patches (v_dualWing);
    }
    {
        name            AMI_dualWing_slave;
        patchInfo
        {
            type            cyclicAMI;
            matchTolerance  0.0001;
            neighbourPatch  AMI_dualWing;
        }
        constructFrom patches;
        patches (v_dualWing_slave);
    }
);


// ************************************************************************* //
