/*--------------------------------*- C++ -*----------------------------------*\
|       o        |                                                            |
|    o     o     |  HELYX (R) : Open-source CFD for Enterprise                |
|   o   O   o    |  Version : 4.4.0                                           |
|    o     o     |  ENGYS Ltd. <http://engys.com/>                            |
|       o        |                                                            |
\*---------------------------------------------------------------------------*/
FoamFile
{
    version     2.0;
    format      ascii;
    class       volScalarField;
    location    "0";
    object      p;
}
// * * * * * * * * * * * * * * * * * * * * * * * * * * * * * * * * * * * * * //

dimensions      [1 -1 -2 0 0 0 0];

internalField   uniform 101325;

boundaryField
{
    #includeEtc "caseDicts/setConstraintTypes"

    floor
    {
        type            calculated;
        value           uniform 101325;
    }
    ceiling
    {
        type            calculated;
        value           uniform 101325;
    }
    inlet
    {
        type            calculated;
        value           uniform 101325;
    }
    outlet
    {
        type            calculated;
        value           uniform 101325;
    }
    fixedWalls
    {
        type            empty;
    }

}


// ************************************************************************* //
