/*--------------------------------*- C++ -*----------------------------------*\
|       o        |                                                            |
|    o     o     |  HELYX (R) : Open-source CFD for Enterprise                |
|   o   O   o    |  Version : 4.4.0                                           |
|    o     o     |  ENGYS Ltd. <http://engys.com/>                            |
|       o        |                                                            |
\*---------------------------------------------------------------------------*/
FoamFile
{
    version     2.0;
    format      ascii;
    class       dictionary;
    object      caseSetupDict;
}
// * * * * * * * * * * * * * * * * * * * * * * * * * * * * * * * * * * * * * //

global
{
    modificationSwitches
    {
        resetInternalFields true;
        resetBoundaryFields true;
        resetSystemDicts true;
        resetConstDicts true;
        resetBoundaryMesh true;
        deleteUnusedFields true;
        reuseExistingDicts false;
        strictPatchNameChecking false;
    }
    system
    {
        controlDict
        {
            application helyxSolve;
            startFrom startTime;
            startTime 0;
            stopAt endTime;
            endTime 100.0;
            deltaT constant 0.5;
            writeControl runTime;
            writeInterval 10.0;
            writeFormat binary;
            writePrecision 10;
            adjustTimeStep false;
            maxCo 0;
            maxDeltaT 0;
            maxAlphaCo 0;
            minDeltaT 0;
        }
    }
    functions
    {
        FE
        {
            type fractionalEffectiveDose;
            field fed;
            regionType all;
            activityLevel lightWork;
            periodicReset false;
            executeControl timeStep;
            executeInterval 1;
            writeControl outputTimeAndEnd;
            writeInterval 1;
            functionObjectLibs ("libfieldFunctionObjects.so");
        }
        VR
        {
            type volumeReport;
            regions ( region0 );
            fields ( T U k omega p );
            writeControl timeStep;
            writeInterval 1;
            executeControl timeStep;
            executeInterval 1;
            functionObjectLibs ("libreport.so");
        }
        SR_out
        {
            type surfaceReport;
            regions ( region0 );
            fields ( CO CO2 N2 O2 T U p soot );
            weighting flux;
            fluxName phi;
            homogeneity false;
            backFlowReport false;
            directionAware true;
            surfaces
            (
                {
                    type patch;
                    name fan;
                }
            );
            constraints
            (
                {
                    type boundBox;
                    min ( -1000.0 -1000.0 -1000.0 );
                    max ( 1000.0 1000.0 1000.0 );
                    keepInside true;
                }
            );
            writeControl timeStep;
            writeInterval 1;
            executeControl timeStep;
            executeInterval 1;
            functionObjectLibs ("libreport.so" );
        }
    }
}

regions
{
    region0
    {
        state (transient ras energy);
        boundaryMesh
        {
            fan
            {
                type outlet;
            }
            opening1
            {
                type patch;
            }
            opening2
            {
                type patch;
            }
        }
        turbulenceModel kOmegaSST;
        materials (CO CO2 N2 O2 soot);
        materialProperties
        {
            materialName mixture;
            materialType fluid;
            species ( CO CO2 N2 O2 soot );
            mixture standardMixture;
            energy sensibleEnthalpy;
            wconcentrationTransport
            {
                D [0 2 -1 0 0 0 0] 2.0e-5;
                Sct 0.6;
                Cp [0 2 -2 -1 0 0 0] 1930.0;
            }
            CO
            {
                molWeight 28.011;
                equationOfState perfectGas;
                muModel scalarFunction1;
                muModelCoeffs
                {
                    mu constant 1.8e-5;
                }
                thermodynamics hConst;
                thermodynamicsCoeffs
                {
                    Hf 0.0;
                    Cp 1046.0;
                }
                kappaModel kappaPrandtl;
                kappaModelCoeffs
                {
                    Pr 0.73;
                }
                buoyancyModelCoeffs
                {
                    beta 0.003;
                }
            }
            CO2
            {
                molWeight 44.01;
                equationOfState perfectGas;
                muModel scalarFunction1;
                muModelCoeffs
                {
                    mu constant 1.49185e-5;
                }
                thermodynamics hConst;
                thermodynamicsCoeffs
                {
                    Hf 0.0;
                    Cp 849.0;
                }
                kappaModel kappaPrandtl;
                kappaModelCoeffs
                {
                    Pr 0.75;
                }
                buoyancyModelCoeffs
                {
                    beta 0.003;
                }
            }
            N2
            {
                molWeight 28.0;
                equationOfState perfectGas;
                muModel scalarFunction1;
                muModelCoeffs
                {
                    mu constant 1.84e-5;
                }
                thermodynamics hConst;
                thermodynamicsCoeffs
                {
                    Hf 0.0;
                    Cp 1007.0;
                }
                kappaModel kappaPrandtl;
                kappaModelCoeffs
                {
                    Pr 0.71;
                }
                buoyancyModelCoeffs
                {
                    beta 0.00343;
                }
            }
            O2
            {
                molWeight 32.0;
                equationOfState perfectGas;
                muModel scalarFunction1;
                muModelCoeffs
                {
                    mu constant 1.84e-5;
                }
                thermodynamics hConst;
                thermodynamicsCoeffs
                {
                    Hf 0.0;
                    Cp 1007.0;
                }
                kappaModel kappaPrandtl;
                kappaModelCoeffs
                {
                    Pr 0.7;
                }
                buoyancyModelCoeffs
                {
                    beta 0.00343;
                }
            }
            soot
            {
                molWeight 11.0;
                equationOfState perfectGas;
                muModel scalarFunction1;
                muModelCoeffs
                {
                    mu constant 1.84e-5;
                }
                thermodynamics hConst;
                thermodynamicsCoeffs
                {
                    Hf 0.0;
                    Cp 1007.0;
                }
                kappaModel kappaPrandtl;
                kappaModelCoeffs
                {
                    Pr 0.71;
                }
                buoyancyModelCoeffs
                {
                    beta 0.00343;
                }
            }
            referenceFields
            {
                p [1 -1 -2 0 0 0 0] 101325.0;
            }
            buoyancyModel rhoModel;
        }
        constant
        {
            g
            {
                value ( 0.0 0.0 -9.81 );
                dimensions [0  1 -2  0 0 0 0];
            }
            turbulenceProperties
            {
                simulationType RAS;
                RAS
                {
                    RASModel kOmegaSST;
                    turbulence on;
                    printCoeffs on;
                    kOmegaSSTCoeffs
                    {
                        curvature false;
                    }
                }
            }
        }
        system
        {
            fvSchemes
            {
                ddtSchemes
                {
                    default smartBounded backward;
                    ddt(rho,Yi) bounded Euler;
                }
                gradSchemes
                {
                    default cellLimited Gauss linear 1.0;
                    grad(CO) cellLimited Gauss linear 1.0;
                    grad(CO2) cellLimited Gauss linear 1.0;
                    grad(N2) cellLimited Gauss linear 1.0;
                    grad(O2) cellLimited Gauss linear 1.0;
                    grad(soot) cellLimited Gauss linear 1.0;
                }
                divSchemes
                {
                    default none;
                    div(phi,k) Gauss upwind;
                    div(phi,omega) Gauss upwind;
                    div(R) Gauss linear;
                    div((rho*R)) Gauss linear;
                    div(nonlinearStress) Gauss linear;
                    div((muEff*dev2(grad(U).T()))) Gauss linear;
                    div((nuEff*dev2(T(grad(U))))) Gauss linear;
                    div((nu*dev2(T(grad(U))))) Gauss linear;
                    div(((rho*(mu|rho))*dev2(T(grad(U))))) Gauss linear;
                }
            }
            faSchemes
            {
                divSchemes
                {
                    div(rhog) Gauss linear;
                }
                laplacianSchemes
                {
                    laplacian(p) Gauss linear corrected;
                }
            }
            fvSolution
            {
                solvers
                {
                    k
                    {
                        solver smoothSolver;
                        smoother symGaussSeidel;
                        minIter 1;
                        tolerance 1e-6;
                        relTol 0.01;
                        maxIter 20;
                    }
                    kFinal
                    {
                        solver smoothSolver;
                        smoother symGaussSeidel;
                        minIter 1;
                        tolerance 1e-6;
                        relTol 0.0;
                        maxIter 20;
                    }
                    omega
                    {
                        solver smoothSolver;
                        smoother symGaussSeidel;
                        minIter 1;
                        tolerance 1e-6;
                        relTol 0.01;
                        maxIter 20;
                    }
                    omegaFinal
                    {
                        solver smoothSolver;
                        smoother symGaussSeidel;
                        minIter 1;
                        tolerance 1e-6;
                        relTol 0.0;
                        maxIter 20;
                    }
                }
                PIMPLE
                {
                    nOuterCorrectors 6;
                    nCorrectors 2;
                    residualControl
                    {
                        ".*"
                        {
                            relTol          0;
                            tolerance       0;
                        }
                    }
                    pMin -1.0e10;
                    pMax 1.0e10;
                    consistent false;
                    transonic false;
                }
            }
            faSolution
            {
                solvers
                {
                    pFinal
                    {
                        solver PCG;
                        preconditioner DIC;
                        tolerance 1e-7;
                        relTol 0.0;
                    }
                }
            }
            fvOptions
            {
                flowSolver
                {
                    type rhieChowFlowSolver;
                }
                fluidEnergySolver
                {
                    type fluidEnergySolver;
                }
                speciesConcentrationSolver
                {
                    type speciesConcentrationSolver;
                }
                fireSource_TSI
                {
                    type scalarTimeDependentSemiImplicitSource;
                    active true;
                    scalarTimeDependentSemiImplicitSourceCoeffs
                    {
                        selectionMode cellZone;
                        cellZone fireSource;
                        volumeMode absolute;
                        injectionRateSu
                        {
                            h table
                            (
                                ( 0.0 0.0 )
                                ( 6.0 35280.0 )
                                ( 12.0 141120.0 )
                                ( 18.0 317520.0 )
                                ( 24.0 564480.0 )
                                ( 30.0 882000.0 )
                                ( 36.0 1270080.0 )
                                ( 42.0 1728720.0 )
                                ( 48.0 2257920.0 )
                                ( 54.0 2857680.0 )
                                ( 60.0 3528000.0 )
                                ( 66.0 4268880.0 )
                                ( 72.0 5080320.0 )
                                ( 78.0 5962320.0 )
                                ( 84.0 6914880.0 )
                                ( 90.0 7938000.0 )
                                ( 96.0 9031680.0 )
                                ( 102.0 1.019592e7 )
                                ( 103.0 1.0498005e7 )
                                ( 150.0 1.05E7 )
                                ( 180.0 1.05E7 )
                            );
                        }
                        injectionRateSp
                        {
                            h constant 0.0;
                        }
                    }
                }
                fireSource_O2
                {
                    type scalarTimeDependentSemiImplicitSource;
                    active true;
                    scalarTimeDependentSemiImplicitSourceCoeffs
                    {
                        selectionMode cellZone;
                        cellZone fireSource;
                        volumeMode absolute;
                        injectionRateSu
                        {
                            O2 table
                            (
                                ( 0.0 0.0 )
                                ( 6.0 -0.0031 )
                                ( 12.0 -0.0124 )
                                ( 18.0 -0.0278 )
                                ( 24.0 -0.0495 )
                                ( 30.0 -0.0773 )
                                ( 36.0 -0.111 )
                                ( 42.0 -0.152 )
                                ( 48.0 -0.198 )
                                ( 54.0 -0.251 )
                                ( 60.0 -0.309 )
                                ( 66.0 -0.374 )
                                ( 72.0 -0.445 )
                                ( 78.0 -0.523 )
                                ( 84.0 -0.606 )
                                ( 90.0 -0.696 )
                                ( 96.0 -0.792 )
                                ( 102.0 -0.894 )
                                ( 103.0 -0.92 )
                                ( 150.0 -0.92 )
                                ( 180.0 -0.92 )
                            );
                        }
                        injectionRateSp
                        {
                            O2 constant 0.0;
                        }
                    }
                }
                fireSource_soot
                {
                    type scalarTimeDependentSemiImplicitSource;
                    active true;
                    scalarTimeDependentSemiImplicitSourceCoeffs
                    {
                        selectionMode cellZone;
                        cellZone fireSource;
                        volumeMode absolute;
                        injectionRateSu
                        {
                            soot table
                            (
                                ( 0.0 0.0 )
                                ( 6.0 1.96e-4 )
                                ( 12.0 7.82e-4 )
                                ( 18.0 0.00176 )
                                ( 24.0 0.00313 )
                                ( 30.0 0.00489 )
                                ( 36.0 0.00704 )
                                ( 42.0 0.00958 )
                                ( 48.0 0.0125 )
                                ( 54.0 0.0158 )
                                ( 60.0 0.0196 )
                                ( 66.0 0.0237 )
                                ( 72.0 0.0282 )
                                ( 78.0 0.0331 )
                                ( 84.0 0.0383 )
                                ( 90.0 0.044 )
                                ( 96.0 0.0501 )
                                ( 102.0 0.0565 )
                                ( 103.0 0.0582 )
                                ( 150.0 0.0582 )
                                ( 180.0 0.0582 )
                            );
                        }
                        injectionRateSp
                        {
                            soot constant 0.0;
                        }
                    }
                }
                fireSource_CO2
                {
                    type scalarTimeDependentSemiImplicitSource;
                    active true;
                    scalarTimeDependentSemiImplicitSourceCoeffs
                    {
                        selectionMode cellZone;
                        cellZone fireSource;
                        volumeMode absolute;
                        injectionRateSu
                        {
                            CO2 table
                            (
                                ( 0.0 0.0 )
                                ( 6.0 0.00321 )
                                ( 12.0 0.0128 )
                                ( 18.0 0.0289 )
                                ( 24.0 0.0513 )
                                ( 30.0 0.0802 )
                                ( 36.0 0.116 )
                                ( 42.0 0.157 )
                                ( 48.0 0.205 )
                                ( 54.0 0.26 )
                                ( 60.0 0.321 )
                                ( 66.0 0.388 )
                                ( 72.0 0.462 )
                                ( 78.0 0.542 )
                                ( 84.0 0.629 )
                                ( 90.0 0.722 )
                                ( 96.0 0.822 )
                                ( 102.0 0.927 )
                                ( 103.0 0.955 )
                                ( 150.0 0.955 )
                                ( 180.0 0.955 )
                            );
                        }
                        injectionRateSp
                        {
                            CO2 constant 0.0;
                        }
                    }
                }
                fireSource_CO
                {
                    type scalarTimeDependentSemiImplicitSource;
                    active true;
                    scalarTimeDependentSemiImplicitSourceCoeffs
                    {
                        selectionMode cellZone;
                        cellZone fireSource;
                        volumeMode absolute;
                        injectionRateSu
                        {
                            CO table
                            (
                                ( 0.0 0.0 )
                                ( 6.0 1.96e-4 )
                                ( 12.0 7.82e-4 )
                                ( 18.0 0.00176 )
                                ( 24.0 0.00313 )
                                ( 30.0 0.00489 )
                                ( 36.0 0.00704 )
                                ( 42.0 0.00958 )
                                ( 48.0 0.0125 )
                                ( 54.0 0.0158 )
                                ( 60.0 0.0196 )
                                ( 66.0 0.0237 )
                                ( 72.0 0.0282 )
                                ( 78.0 0.0331 )
                                ( 84.0 0.0383 )
                                ( 90.0 0.044 )
                                ( 96.0 0.0501 )
                                ( 102.0 0.0565 )
                                ( 103.0 0.0582 )
                                ( 150.0 0.0582 )
                                ( 180.0 0.0582 )
                            );
                        }
                        injectionRateSp
                        {
                            CO constant 0.0;
                        }
                    }
                }
            }
        }
        fields
        {
            U
            {
                initialisation
                {
                    type fixedValue;
                    value uniform ( 0.0 0.0 0.0 );
                }
            }
            p
            {
                initialisation
                {
                    type buoyantPressure;
                    value uniform 0;
                }
            }
            k
            {
                initialisation
                {
                    type turbulentIL;
                    I 0.05;
                    L 0.01;
                    Uref 1.0;
                }
            }
            omega
            {
                initialisation
                {
                    type turbulentIL;
                    I 0.05;
                    L 0.01;
                    Uref 1.0;
                }
            }
            T
            {
                initialisation
                {
                    type fixedValue;
                    value uniform 300.0;
                }
            }
            CO
            {
                initialisation
                {
                    type fixedValue;
                    value uniform 0.0;
                }
            }
            CO2
            {
                initialisation
                {
                    type fixedValue;
                    value uniform 0.0;
                }
            }
            N2
            {
                initialisation
                {
                    type fixedValue;
                    value uniform 0.79;
                }
            }
            O2
            {
                initialisation
                {
                    type fixedValue;
                    value uniform 0.21;
                }
            }
            soot
            {
                initialisation
                {
                    type fixedValue;
                    value uniform 0.0;
                }
            }
        }
        boundaryConditions
        {
            fan
            {
                U
                {
                    type pressureVelocity;
                    value uniform ( 0.0 0.0 0.0 );
                }
                p
                {
                    type fanPressure;
                    value uniform 0.0;
                    p0 uniform 0.0;
                    pressureMode static;
                    timeFanCurve true;
                    direction out;
                    fanCurve table
                    (
                        (
                            0.0
                            (
                                ( 8.333 100.0 )
                                ( 8.889 90.0 )
                                ( 9.444 80.0 )
                                ( 9.722 70.0 )
                                ( 10.0 60.0 )
                                ( 10.278 50.0 )
                                ( 10.972 40.0 )
                                ( 11.528 30.0 )
                            )
                        )
                        (
                            30.0
                            (
                                ( 8.333 100.0 )
                                ( 8.889 90.0 )
                                ( 9.444 80.0 )
                                ( 9.722 70.0 )
                                ( 10.0 60.0 )
                                ( 10.278 50.0 )
                                ( 10.972 40.0 )
                                ( 11.528 30.0 )
                            )
                        )
                        (
                            31.0
                            (
                                ( 8.333 1000.0 )
                                ( 8.889 900.0 )
                                ( 9.444 800.0 )
                                ( 9.722 700.0 )
                                ( 10.0 600.0 )
                                ( 10.278 500.0 )
                                ( 10.972 400.0 )
                                ( 11.528 300.0 )
                            )
                        )
                        (
                            60.0
                            (
                                ( 8.333 1000.0 )
                                ( 8.889 900.0 )
                                ( 9.444 800.0 )
                                ( 9.722 700.0 )
                                ( 10.0 600.0 )
                                ( 10.278 500.0 )
                                ( 10.972 400.0 )
                                ( 11.528 300.0 )
                            )
                        )
                    );
                    outOfBounds clamp;
                }
                T
                {
                    type inletOutlet;
                    value uniform 300.0;
                    inletValue uniform 300.0;
                }
                k
                {
                    type turbulentIntensityKineticEnergyInlet;
                    intensity 0.05;
                    value uniform 0.1;
                }
                omega
                {
                    type turbulentMixingLengthFrequencyInlet;
                    mixingLength 0.01;
                    k k;
                    value uniform 0.01;
                }
                CO
                {
                    type inletOutlet;
                    value uniform 0.0;
                    inletValue uniform 0.0;
                }
                CO2
                {
                    type inletOutlet;
                    value uniform 0.0;
                    inletValue uniform 0.0;
                }
                N2
                {
                    type inletOutlet;
                    value uniform 0.79;
                    inletValue uniform 0.79;
                }
                O2
                {
                    type inletOutlet;
                    value uniform 0.21;
                    inletValue uniform 0.21;
                }
                soot
                {
                    type inletOutlet;
                    value uniform 0.0;
                    inletValue uniform 0.0;
                }
            }
            fanWall
            {
                U
                {
                    type wallVelocity;
                    value uniform ( 0.0 0.0 0.0 );
                }
            }
            ground
            {
                U
                {
                    type wallVelocity;
                    value uniform ( 0.0 0.0 0.0 );
                }
            }
            opening1
            {
                U
                {
                    type pressureVelocity;
                    value uniform ( 0.0 0.0 0.0 );
                }
                p
                {
                    type totalPressure;
                    value uniform 0.0;
                    p0 uniform 0.0;
                    gamma 1.4;
                    addStaticHead true;
                    integrateStaticHead false;
                }
                T
                {
                    type inletOutlet;
                    value uniform 300.0;
                    inletValue uniform 300.0;
                }
                CO
                {
                    type inletOutlet;
                    value uniform 0.0;
                    inletValue uniform 0.0;
                }
                CO2
                {
                    type inletOutlet;
                    value uniform 0.0;
                    inletValue uniform 0.0;
                }
                N2
                {
                    type inletOutlet;
                    value uniform 0.79;
                    inletValue uniform 0.79;
                }
                O2
                {
                    type inletOutlet;
                    value uniform 0.21;
                    inletValue uniform 0.21;
                }
                soot
                {
                    type inletOutlet;
                    value uniform 0.0;
                    inletValue uniform 0.0;
                }
            }
            opening2
            {
                U
                {
                    type pressureVelocity;
                    value uniform ( 0.0 0.0 0.0 );
                }
                p
                {
                    type totalPressure;
                    value uniform 0.0;
                    p0 uniform 0.0;
                    gamma 1.4;
                    addStaticHead true;
                    integrateStaticHead false;
                }
                T
                {
                    type inletOutlet;
                    value uniform 300.0;
                    inletValue uniform 300.0;
                }
                CO
                {
                    type inletOutlet;