/*--------------------------------*- C++ -*----------------------------------*\
|       o        |                                                            |
|    o     o     |  HELYX (R) : Open-source CFD for Enterprise                |
|   o   O   o    |  Version : 4.4.0                                           |
|    o     o     |  ENGYS Ltd. <http://engys.com/>                            |
|       o        |                                                            |
\*---------------------------------------------------------------------------*/
FoamFile
{
    version     2.0;
    format      ascii;
    class       dictionary;
    object      blockMeshDict;
}
// * * * * * * * * * * * * * * * * * * * * * * * * * * * * * * * * * * * * * //

convertToMeters 1.0;

vertices
(
    (0.0 0.0 -0.038)
    (0.038 0.0 -0.038)
    (0.076 0.0 -0.038)
    (0.0 1.09 -0.038)
    (0.038 1.09 -0.038)
    (0.076 1.09 -0.038)
    (0.0 2.18 -0.038)
    (0.038 2.18 -0.038)
    (0.076 2.18 -0.038)
    (0.0 0.0 0.038)
    (0.038 0.0 0.038)
    (0.076 0.0 0.038)
    (0.0 1.09 0.038)
    (0.038 1.09 0.038)
    (0.076 1.09 0.038)
    (0.0 2.18 0.038)
    (0.038 2.18 0.038)
    (0.076 2.18 0.038)
);

blocks
(
    hex (0 1 4 3 9 10 13 12) (20 400 1) simpleGrading (8 8 1)
    hex (1 2 5 4 10 11 14 13) (20 400 1) simpleGrading (0.125 8 1)
    hex (3 4 7 6 12 13 16 15) (20 400 1) simpleGrading (8 0.125 1)
    hex (4 5 8 7 13 14 17 16) (20 400 1) simpleGrading (0.125 0.125 1)
);

edges ();

patches
(
    wall ffmaxy
    (
        (6 15 16 7)
        (7 16 17 8)
    )
    wall ffminy
    (
        (0 1 10 9)
        (1 2 11 10)
    )
    wall cold
    (
        (3 12 15 6)
        (0 9 12 3)
    )
    wall hot
    (
        (2 5 14 11)
        (5 8 17 14)
    )
    empty frontAndBack
    (
        (0 3 4 1)
        (1 4 5 2)
        (3 6 7 4)
        (4 7 8 5)
        (9 10 13 12)
        (10 11 14 13)
        (12 13 16 15)
        (13 14 17 16)
    )
);

mergePatchPairs ();


// ************************************************************************* //
