/*--------------------------------*- C++ -*----------------------------------*\
|       o        |                                                            |
|    o     o     |  HELYX (R) : Open-source CFD for Enterprise                |
|   o   O   o    |  Version : 4.4.0                                           |
|    o     o     |  ENGYS Ltd. <http://engys.com/>                            |
|       o        |                                                            |
\*---------------------------------------------------------------------------*/
FoamFile
{
    version     2.0;
    format      ascii;
    class       dictionary;
    object      fvSchemes;
}
// * * * * * * * * * * * * * * * * * * * * * * * * * * * * * * * * * * * * * //

ddtSchemes
{
    default Euler;
}

gradSchemes
{
    default cellLimited Gauss linear 1;
    turbulence cellLimited Gauss linear 1;
    gradU cellLimited Gauss linear 1.0;
    grad(p) Gauss linear;
    grad(k) cellLimited Gauss linear 1.0;
    grad(omega) cellLimited Gauss linear 1.0;
}

divSchemes
{
    div(phi,U) bounded Gauss linearUpwindV gradU;
    default none;
    div(R) Gauss linear;
    div(nonlinearStress) Gauss linear;
    div((muEff*dev2(grad(U).T()))) Gauss linear;
    div((nuEff*dev2(T(grad(U))))) Gauss linear;
    div(((rho*nuEff)*dev2(T(grad(U))))) Gauss linear;
    div((nu*dev2(T(grad(U))))) Gauss linear;
    div(phi,k) bounded Gauss limitedLinear 1.000000;
    div(phi,omega) bounded Gauss limitedLinear 1.000000;
    div(meshPhi,p) Gauss linear;
}

laplacianSchemes
{
    default Gauss linear limited 0.333;
    laplacian(DkEff,k) Gauss linear limited 0.333;
    laplacian(DomegaEff,omega) Gauss linear limited 0.333;
    laplacian(diffusivity,cellDisplacement) Gauss linear uncorrected;
    laplacian(diffusivity,cellMotionU) Gauss linear uncorrected;
}

interpolationSchemes
{
    default linear;
    interpolate(HbyA) linear;
}

snGradSchemes
{
    default limited 0.333;
}

wallDist
{
    method meshWave;
}

fluxRequired
{
    pcorr ;
}


// ************************************************************************* //
