/*--------------------------------*- C++ -*----------------------------------*\
|       o        |                                                            |
|    o     o     |  HELYX (R) : Open-source CFD for Enterprise                |
|   o   O   o    |  Version : 4.4.0                                           |
|    o     o     |  ENGYS Ltd. <http://engys.com/>                            |
|       o        |                                                            |
\*---------------------------------------------------------------------------*/
FoamFile
{
    version     2.0;
    format      ascii;
    class       dictionary;
    location    "system";
    object      dynamicMeshDict;
}
// * * * * * * * * * * * * * * * * * * * * * * * * * * * * * * * * * * * * * //

mover
{
    type            motionSolver;
    libs            ( "libfvMeshMovers.so" "libfvMotionSolvers.so" );
    motionSolver    displacementLaplacian;

    // diffusivity  uniform;
    // diffusivity  directional (1 200 0);
    // diffusivity  motionDirectional (1 1000 0);
    // diffusivity  file motionDiffusivity;
    diffusivity     inverseDistance 1(floatingObjectBottom);
}


// ************************************************************************* //
